version 2
run Owner-400-0-20110908-17:46:01-6141
attr configname Owner-400
attr datetime 20110908-17:46:01
attr experiment Owner-400
attr inifile nocrypto.ini
attr iterationvars ""
attr iterationvars2 $repetition=0
attr measurement ""
attr network UCACnet
attr processid 6141
attr repetition 0
attr replication #0
attr resultdir results
attr runnumber 0
attr seedset 0

statistic UCACnet.owner[0] 	latency:stats
field count 198
field mean 23.529359748723
field stddev 0.70077380014296
field sum 4658.8132302472
field sqrsum 109715.63602864
field min 21.504475662363
field max 25.096786384989
attr interpolationmode  none
attr title  "Latency time of file print, stats"
attr unit  s
statistic UCACnet.owner[1] 	latency:stats
field count 205
field mean 23.577369330747
field stddev 0.67443892737458
field sum 4833.3607128032
field sqrsum 114050.7236793
field min 21.870217587657
field max 24.96645068562
attr interpolationmode  none
attr title  "Latency time of file print, stats"
attr unit  s
statistic UCACnet.owner[2] 	latency:stats
field count 209
field mean 23.590140110659
field stddev 0.69267709879117
field sum 4930.3392831278
field sqrsum 116407.19320722
field min 21.510803816607
field max 25.404443255908
attr interpolationmode  none
attr title  "Latency time of file print, stats"
attr unit  s
statistic UCACnet.owner[3] 	latency:stats
field count 211
field mean 23.522197982638
field stddev 0.68617252919649
field sum 4963.1837743366
field sqrsum 116843.86623953
field min 21.358774361328
field max 25.5169538731
attr interpolationmode  none
attr title  "Latency time of file print, stats"
attr unit  s
statistic UCACnet.owner[4] 	latency:stats
field count 200
field mean 23.505261557143
field stddev 0.68532776153
field sum 4701.0523114286
field sqrsum 110592.92932795
field min 21.263193428617
field max 25.06036646683
attr interpolationmode  none
attr title  "Latency time of file print, stats"
attr unit  s
statistic UCACnet.owner[5] 	latency:stats
field count 202
field mean 23.494575435239
field stddev 0.70956679416261
field sum 4745.9042379183
field sqrsum 111604.2056183
field min 21.626503468229
field max 25.543146732659
attr interpolationmode  none
attr title  "Latency time of file print, stats"
attr unit  s
statistic UCACnet.owner[6] 	latency:stats
field count 199
field mean 23.500687008759
field stddev 0.69363420862611
field sum 4676.6367147431
field sqrsum 109999.4391131
field min 21.901257769006
field max 25.359755232491
attr interpolationmode  none
attr title  "Latency time of file print, stats"
attr unit  s
statistic UCACnet.owner[7] 	latency:stats
field count 197
field mean 23.545755079794
field stddev 0.69679580058561
field sum 4638.5137507194
field sqrsum 109312.47148869
field min 21.764531613431
field max 25.530514318311
attr interpolationmode  none
attr title  "Latency time of file print, stats"
attr unit  s
statistic UCACnet.owner[8] 	latency:stats
field count 208
field mean 23.537367934447
field stddev 0.60639310649415
field sum 4895.772530365
field sqrsum 115309.71587868
field min 21.809876958633
field max 24.941616749004
attr interpolationmode  none
attr title  "Latency time of file print, stats"
attr unit  s
statistic UCACnet.owner[9] 	latency:stats
field count 202
field mean 23.565338707535
field stddev 0.64607522877897
field sum 4760.1984189221
field sqrsum 112259.58811042
field min 21.938158691223
field max 25.057075459761
attr interpolationmode  none
attr title  "Latency time of file print, stats"
attr unit  s
statistic UCACnet.owner[10] 	latency:stats
field count 197
field mean 23.54400123688
field stddev 0.64168322543021
field sum 4638.1682436653
field sqrsum 109281.74330862
field min 22.067066622359
field max 25.548277684941
attr interpolationmode  none
attr title  "Latency time of file print, stats"
attr unit  s
statistic UCACnet.owner[11] 	latency:stats
field count 204
field mean 23.53277432382
field stddev 0.64319193015771
field sum 4800.6859620593
field sqrsum 113057.43960405
field min 21.756010037365
field max 25.025441621312
attr interpolationmode  none
attr title  "Latency time of file print, stats"
attr unit  s
statistic UCACnet.owner[12] 	latency:stats
field count 206
field mean 23.483674987124
field stddev 0.70469365883431
field sum 4837.6370473475
field sqrsum 113707.2977219
field min 21.3729098496
field max 25.406836501654
attr interpolationmode  none
attr title  "Latency time of file print, stats"
attr unit  s
statistic UCACnet.owner[13] 	latency:stats
field count 204
field mean 23.4920269321
field stddev 0.66777700690039
field sum 4792.3734941484
field sqrsum 112673.0901978
field min 21.276416115265
field max 24.995918628298
attr interpolationmode  none
attr title  "Latency time of file print, stats"
attr unit  s
statistic UCACnet.owner[14] 	latency:stats
field count 195
field mean 23.540379231203
field stddev 0.64834095464243
field sum 4590.3739500846
field sqrsum 108140.69072076
field min 21.897141752011
field max 25.54367652812
attr interpolationmode  none
attr title  "Latency time of file print, stats"
attr unit  s
statistic UCACnet.owner[15] 	latency:stats
field count 207
field mean 23.480659385631
field stddev 0.98730525067317
field sum 4860.4964928256
field sqrsum 114328.46555464
field min 13.12816081571
field max 25.448530308048
attr interpolationmode  none
attr title  "Latency time of file print, stats"
attr unit  s
statistic UCACnet.owner[16] 	latency:stats
field count 199
field mean 23.495232673751
field stddev 0.64296422100715
field sum 4675.5513020764
field sqrsum 109935.01951226
field min 21.878188859134
field max 25.657051666061
attr interpolationmode  none
attr title  "Latency time of file print, stats"
attr unit  s
statistic UCACnet.owner[17] 	latency:stats
field count 202
field mean 23.504206900491
field stddev 0.74071423885657
field sum 4747.8497938993
field sqrsum 111704.72406258
field min 20.720446098223
field max 25.517369230679
attr interpolationmode  none
attr title  "Latency time of file print, stats"
attr unit  s
statistic UCACnet.owner[18] 	latency:stats
field count 192
field mean 23.454768752818
field stddev 0.67753638215258
field sum 4503.3156005411
field sqrsum 105711.90564154
field min 21.344110218498
field max 25.598538676082
attr interpolationmode  none
attr title  "Latency time of file print, stats"
attr unit  s
statistic UCACnet.owner[19] 	latency:stats
field count 202
field mean 23.516604658696
field stddev 0.68621920532703
field sum 4750.3541410566
field sqrsum 111806.85058038
field min 21.520371505722
field max 25.539848994823
attr interpolationmode  none
attr title  "Latency time of file print, stats"
attr unit  s
statistic UCACnet.owner[20] 	latency:stats
field count 205
field mean 23.566288942911
field stddev 0.65618164032756
field sum 4831.0892332968
field sqrsum 113938.68194726
field min 21.938867808628
field max 25.540099583556
attr interpolationmode  none
attr title  "Latency time of file print, stats"
attr unit  s
statistic UCACnet.owner[21] 	latency:stats
field count 200
field mean 23.511280517556
field stddev 0.71481051814816
field sum 4702.2561035112
field sqrsum 110657.74217633
field min 21.383560860737
field max 25.504581294828
attr interpolationmode  none
attr title  "Latency time of file print, stats"
attr unit  s
statistic UCACnet.owner[22] 	latency:stats
field count 208
field mean 23.428415325926
field stddev 0.65986193874853
field sum 4873.1103877925
field sqrsum 114259.38557438
field min 21.517801271408
field max 25.001212619639
attr interpolationmode  none
attr title  "Latency time of file print, stats"
attr unit  s
statistic UCACnet.owner[23] 	latency:stats
field count 198
field mean 23.462572176277
field stddev 0.68111759781851
field sum 4645.5892909029
field sqrsum 109088.86651202
field min 21.565619974211
field max 24.954696276091
attr interpolationmode  none
attr title  "Latency time of file print, stats"
attr unit  s
statistic UCACnet.owner[24] 	latency:stats
field count 207
field mean 23.504828651493
field stddev 0.60389492811534
field sum 4865.4995308592
field sqrsum 114437.85872811
field min 22.051675998762
field max 24.921031673372
attr interpolationmode  none
attr title  "Latency time of file print, stats"
attr unit  s
statistic UCACnet.owner[25] 	latency:stats
field count 208
field mean 23.487481002912
field stddev 0.66794667288256
field sum 4885.3960486057
field sqrsum 114838.00050419
field min 21.006693054537
field max 24.970373475695
attr interpolationmode  none
attr title  "Latency time of file print, stats"
attr unit  s
statistic UCACnet.owner[26] 	latency:stats
field count 206
field mean 23.504758634704
field stddev 0.65122383913317
field sum 4841.9802787491
field sqrsum 113896.51672617
field min 21.48279547671
field max 25.572658571496
attr interpolationmode  none
attr title  "Latency time of file print, stats"
attr unit  s
statistic UCACnet.owner[27] 	latency:stats
field count 198
field mean 23.516571064947
field stddev 0.64981757768148
field sum 4656.2810708595
field sqrsum 109582.95048943
field min 21.012364150759
field max 25.321676451246
attr interpolationmode  none
attr title  "Latency time of file print, stats"
attr unit  s
statistic UCACnet.owner[28] 	latency:stats
field count 195
field mean 23.497353834893
field stddev 0.94980500751048
field sum 4581.9839978042
field sqrsum 107839.51239537
field min 13.73115395199
field max 25.62374343813
attr interpolationmode  none
attr title  "Latency time of file print, stats"
attr unit  s
statistic UCACnet.owner[29] 	latency:stats
field count 206
field mean 23.49152379051
field stddev 0.68735631482964
field sum 4839.253900845
field sqrsum 113778.30217424
field min 21.777470491627
field max 25.053429222153
attr interpolationmode  none
attr title  "Latency time of file print, stats"
attr unit  s
statistic UCACnet.owner[30] 	latency:stats
field count 206
field mean 23.473003899974
field stddev 0.87261788235794
field sum 4835.4388033946
field sqrsum 113658.37359373
field min 14.688397245398
field max 25.406605345627
attr interpolationmode  none
attr title  "Latency time of file print, stats"
attr unit  s
statistic UCACnet.owner[31] 	latency:stats
field count 200
field mean 23.538604454635
field stddev 0.61476700906399
field sum 4707.7208909271
field sqrsum 110888.38969097
field min 21.98134861514
field max 25.09109542998
attr interpolationmode  none
attr title  "Latency time of file print, stats"
attr unit  s
statistic UCACnet.owner[32] 	latency:stats
field count 199
field mean 23.46610007224
field stddev 1.1483154022931
field sum 4669.7539143757
field sqrsum 109842.00106358
field min 10.58575162265
field max 25.495125123413
attr interpolationmode  none
attr title  "Latency time of file print, stats"
attr unit  s
statistic UCACnet.owner[33] 	latency:stats
field count 202
field mean 23.51915296519
field stddev 0.65854521189138
field sum 4750.8688989683
field sqrsum 111823.58239342
field min 21.408029728568
field max 25.059048453806
attr interpolationmode  none
attr title  "Latency time of file print, stats"
attr unit  s
statistic UCACnet.owner[34] 	latency:stats
field count 203
field mean 23.524841066297
field stddev 0.64391362249016
field sum 4775.5427364584
field sqrsum 112427.63808065
field min 20.93090493964
field max 25.56988756988
attr interpolationmode  none
attr title  "Latency time of file print, stats"
attr unit  s
statistic UCACnet.owner[35] 	latency:stats
field count 204
field mean 23.531600998058
field stddev 0.67430957857793
field sum 4800.4466036039
field sqrsum 113054.49685027
field min 21.68402129761
field max 25.526772704618
attr interpolationmode  none
attr title  "Latency time of file print, stats"
attr unit  s
statistic UCACnet.owner[36] 	latency:stats
field count 199
field mean 23.562715285679
field stddev 0.62181078097516
field sum 4688.9803418502
field sqrsum 110561.66520734
field min 21.452215517311
field max 24.907452707581
attr interpolationmode  none
attr title  "Latency time of file print, stats"
attr unit  s
statistic UCACnet.owner[37] 	latency:stats
field count 206
field mean 23.510754506417
field stddev 0.81450670675456
field sum 4843.215428322
field sqrsum 114003.65029792
field min 16.837698969991
field max 25.496323473604
attr interpolationmode  none
attr title  "Latency time of file print, stats"
attr unit  s
statistic UCACnet.owner[38] 	latency:stats
field count 200
field mean 23.565467151368
field stddev 0.67704601111312
field sum 4713.0934302736
field sqrsum 111157.46828137
field min 21.809722937218
field max 25.544992252141
attr interpolationmode  none
attr title  "Latency time of file print, stats"
attr unit  s
statistic UCACnet.owner[39] 	latency:stats
field count 201
field mean 23.516260656336
field stddev 0.66168642364207
field sum 4726.7683919235
field sqrsum 111243.48335125
field min 21.627361810082
field max 25.288001821092
attr interpolationmode  none
attr title  "Latency time of file print, stats"
attr unit  s
statistic UCACnet.owner[40] 	latency:stats
field count 197
field mean 23.547956997169
field stddev 0.71105085069336
field sum 4638.9475284422
field sqrsum 109336.83320108
field min 21.199177558114
field max 25.519643407024
attr interpolationmode  none
attr title  "Latency time of file print, stats"
attr unit  s
statistic UCACnet.owner[41] 	latency:stats
field count 207
field mean 23.505700147403
field stddev 0.66540743633092
field sum 4865.6799305125
field sqrsum 114462.42347347
field min 20.991163028292
field max 25.608918106283
attr interpolationmode  none
attr title  "Latency time of file print, stats"
attr unit  s
statistic UCACnet.owner[42] 	latency:stats
field count 206
field mean 23.551260061384
field stddev 0.65606203821037
field sum 4851.559572645
field sqrsum 114348.57676524
field min 21.143431818767
field max 25.018452621979
attr interpolationmode  none
attr title  "Latency time of file print, stats"
attr unit  s
statistic UCACnet.owner[43] 	latency:stats
field count 204
field mean 23.556248653089
field stddev 0.66904004640174
field sum 4805.4747252302
field sqrsum 113289.82328415
field min 21.860852758505
field max 25.517936679552
attr interpolationmode  none
attr title  "Latency time of file print, stats"
attr unit  s
statistic UCACnet.owner[44] 	latency:stats
field count 205
field mean 23.485387613442
field stddev 0.71773729133733
field sum 4814.5044607556
field sqrsum 113175.59337864
field min 21.587307414495
field max 25.486740931361
attr interpolationmode  none
attr title  "Latency time of file print, stats"
attr unit  s
statistic UCACnet.owner[45] 	latency:stats
field count 207
field mean 23.538375665866
field stddev 0.69405263303886
field sum 4872.4437628342
field sqrsum 114788.64376623
field min 21.395776629715
field max 25.503537603268
attr interpolationmode  none
attr title  "Latency time of file print, stats"
attr unit  s
statistic UCACnet.owner[46] 	latency:stats
field count 204
field mean 23.49932141405
field stddev 0.65510201837461
field sum 4793.8615684662
field sqrsum 112739.61301871
field min 20.980359195835
field max 24.875202669974
attr interpolationmode  none
attr title  "Latency time of file print, stats"
attr unit  s
statistic UCACnet.owner[47] 	latency:stats
field count 206
field mean 23.540718268067
field stddev 0.63319605503224
field sum 4849.3879632218
field sqrsum 114240.2679498
field min 21.979831565892
field max 24.969945872968
attr interpolationmode  none
attr title  "Latency time of file print, stats"
attr unit  s
statistic UCACnet.owner[48] 	latency:stats
field count 208
field mean 23.473650077681
field stddev 0.86531617212781
field sum 4882.5192161575
field sqrsum 114765.54339773
field min 15.97726341226
field max 25.58971444802
attr interpolationmode  none
attr title  "Latency time of file print, stats"
attr unit  s
statistic UCACnet.owner[49] 	latency:stats
field count 202
field mean 23.514711104123
field stddev 0.64938863865047
field sum 4749.9716430328
field sqrsum 111778.9737651
field min 21.836468894719
field max 25.337749648403
attr interpolationmode  none
attr title  "Latency time of file print, stats"
attr unit  s
statistic UCACnet.owner[50] 	latency:stats
field count 204
field mean 23.516527351897
field stddev 0.68160979916407
field sum 4797.3715797871
field sqrsum 112911.8321327
field min 21.443396942115
field max 25.277521461726
attr interpolationmode  none
attr title  "Latency time of file print, stats"
attr unit  s
statistic UCACnet.owner[51] 	latency:stats
field count 211
field mean 23.522884272413
field stddev 0.6638386361071
field sum 4963.3285814791
field sqrsum 116844.3469924
field min 21.139392901295
field max 25.050569952356
attr interpolationmode  none
attr title  "Latency time of file print, stats"
attr unit  s
statistic UCACnet.owner[52] 	latency:stats
field count 209
field mean 23.52206046266
field stddev 0.83279551348054
field sum 4916.110636696
field sqrsum 115781.30969788
field min 16.98071070164
field max 25.413526444834
attr interpolationmode  none
attr title  "Latency time of file print, stats"
attr unit  s
statistic UCACnet.owner[53] 	latency:stats
field count 202
field mean 23.487879749165
field stddev 0.70839541768259
field sum 4744.5517093314
field sqrsum 111540.3266501
field min 21.028955995224
field max 25.252040022209
attr interpolationmode  none
attr title  "Latency time of file print, stats"
attr unit  s
statistic UCACnet.owner[54] 	latency:stats
field count 208
field mean 23.488352719593
field stddev 0.64887238208833
field sum 4885.5773656753
field sqrsum 114841.31872507
field min 22.081880674905
field max 25.151699208663
attr interpolationmode  none
attr title  "Latency time of file print, stats"
attr unit  s
statistic UCACnet.owner[55] 	latency:stats
field count 204
field mean 23.550915818073
field stddev 0.70239383782924
field sum 4804.386826887
field sqrsum 113247.86120947
field min 21.386918351342
field max 25.565424628663
attr interpolationmode  none
attr title  "Latency time of file print, stats"
attr unit  s
statistic UCACnet.owner[56] 	latency:stats
field count 203
field mean 23.527515432315
field stddev 0.64371618804656
field sum 4776.08563276
field sqrsum 112453.13127803
field min 21.2797532576
field max 25.102217006657
attr interpolationmode  none
attr title  "Latency time of file print, stats"
attr unit  s
statistic UCACnet.owner[57] 	latency:stats
field count 206
field mean 23.482345175429
field stddev 0.8385934509928
field sum 4837.3631061384
field sqrsum 113736.79418732
field min 15.494545900314
field max 25.011194358963
attr interpolationmode  none
attr title  "Latency time of file print, stats"
attr unit  s
statistic UCACnet.owner[58] 	latency:stats
field count 203
field mean 23.516195811206
field stddev 0.66818293962222
field sum 4773.7877496749
field sqrsum 112351.51410753
field min 21.65944294358
field max 25.55931893727
attr interpolationmode  none
attr title  "Latency time of file print, stats"
attr unit  s
statistic UCACnet.owner[59] 	latency:stats
field count 205
field mean 23.460973080037
field stddev 0.66378808053248
field sum 4809.4994814077
field sqrsum 112925.42324339
field min 21.868664761824
field max 24.863261145362
attr interpolationmode  none
attr title  "Latency time of file print, stats"
attr unit  s
statistic UCACnet.owner[60] 	latency:stats
field count 206
field mean 23.539422997511
field stddev 0.69779315573106
field sum 4849.1211374874
field sqrsum 114245.33125557
field min 20.379203985115
field max 25.443038377665
attr interpolationmode  none
attr title  "Latency time of file print, stats"
attr unit  s
statistic UCACnet.owner[61] 	latency:stats
field count 203
field mean 23.480399883401
field stddev 0.74989967387054
field sum 4766.5211763303
field sqrsum 112033.41787615
field min 18.227974686336
field max 25.566410275769
attr interpolationmode  none
attr title  "Latency time of file print, stats"
attr unit  s
statistic UCACnet.owner[62] 	latency:stats
field count 201
field mean 23.514080050644
field stddev 0.68287168515283
field sum 4726.3300901795
field sqrsum 111228.56683392
field min 21.811014373266
field max 25.303250803472
attr interpolationmode  none
attr title  "Latency time of file print, stats"
attr unit  s
statistic UCACnet.owner[63] 	latency:stats
field count 200
field mean 23.559312754675
field stddev 0.70460536730077
field sum 4711.862550935
field sqrsum 111107.04077052
field min 21.757942275399
field max 25.519270669427
attr interpolationmode  none
attr title  "Latency time of file print, stats"
attr unit  s
statistic UCACnet.owner[64] 	latency:stats
field count 201
field mean 23.516673989466
field stddev 0.66296677692694
field sum 4726.8514718827
field sqrsum 111247.73005036
field min 21.96177843959
field max 24.999893930682
attr interpolationmode  none
attr title  "Latency time of file print, stats"
attr unit  s
statistic UCACnet.owner[65] 	latency:stats
field count 204
field mean 23.504554030258
field stddev 0.71736927114747
field sum 4794.9290221727
field sqrsum 112807.13586316
field min 19.227522599275
field max 24.99249977173
attr interpolationmode  none
attr title  "Latency time of file print, stats"
attr unit  s
statistic UCACnet.owner[66] 	latency:stats
field count 202
field mean 23.537194121864
field stddev 0.62869802524693
field sum 4754.5132126164
field sqrsum 111987.34794292
field min 21.886488530996
field max 24.98422241212
attr interpolationmode  none
attr title  "Latency time of file print, stats"
attr unit  s
statistic UCACnet.owner[67] 	latency:stats
field count 205
field mean 23.470586511729
field stddev 0.85132871293767
field sum 4811.4702349044
field sqrsum 113075.87955474
field min 16.577227233718
field max 25.485282084468
attr interpolationmode  none
attr title  "Latency time of file print, stats"
attr unit  s
statistic UCACnet.owner[68] 	latency:stats
field count 206
field mean 23.455271321909
field stddev 1.161306816933
field sum 4831.7858923133
field sqrsum 113607.31894581
field min 10.35032181463
field max 25.644878132273
attr interpolationmode  none
attr title  "Latency time of file print, stats"
attr unit  s
statistic UCACnet.owner[69] 	latency:stats
field count 200
field mean 23.509764941405
field stddev 0.72210501414928
field sum 4701.9529882809
field sqrsum 110645.57521466
field min 21.539212095364
field max 25.326750260618
attr interpolationmode  none
attr title  "Latency time of file print, stats"
attr unit  s
statistic UCACnet.owner[70] 	latency:stats
field count 200
field mean 23.60026327928
field stddev 0.68716807106278
field sum 4720.052655856
field sqrsum 111488.45316189
field min 21.552058586079
field max 25.508066781738
attr interpolationmode  none
attr title  "Latency time of file print, stats"
attr unit  s
statistic UCACnet.owner[71] 	latency:stats
field count 201
field mean 23.482625707132
field stddev 0.82192041727373
field sum 4720.0077671334
field sqrsum 110973.28636481
field min 17.098642612181
field max 25.267954550243
attr interpolationmode  none
attr title  "Latency time of file print, stats"
attr unit  s
statistic UCACnet.owner[72] 	latency:stats
field count 205
field mean 23.513833046245
field stddev 0.68947070650962
field sum 4820.3357744803
field sqrsum 113441.54607842
field min 21.662083715641
field max 25.510511318013
attr interpolationmode  none
attr title  "Latency time of file print, stats"
attr unit  s
statistic UCACnet.owner[73] 	latency:stats
field count 197
field mean 23.50420186988
field stddev 0.75594631599306
field sum 4630.3277683664
field sqrsum 108944.1637386
field min 19.353588185892
field max 25.592321956201
attr interpolationmode  none
attr title  "Latency time of file print, stats"
attr unit  s
statistic UCACnet.owner[74] 	latency:stats
field count 199
field mean 23.556190359765
field stddev 0.67558099772984
field sum 4687.6818815933
field sqrsum 110514.29586636
field min 21.856764436011
field max 25.058437121265
attr interpolationmode  none
attr title  "Latency time of file print, stats"
attr unit  s
statistic UCACnet.owner[75] 	latency:stats
field count 197
field mean 23.554471755501
field stddev 0.67158698500883
field sum 4640.2309358337
field sqrsum 109386.59021647
field min 21.827550024322
field max 25.601872898484
attr interpolationmode  none
attr title  "Latency time of file print, stats"
attr unit  s
statistic UCACnet.owner[76] 	latency:stats
field count 200
field mean 23.50486796834
field stddev 0.69105846117954
field sum 4700.973593668
field sqrsum 110590.79843937
field min 21.799497703168
field max 25.39048834243
attr interpolationmode  none
attr title  "Latency time of file print, stats"
attr unit  s
statistic UCACnet.owner[77] 	latency:stats
field count 206
field mean 23.499989458456
field stddev 0.66711198323893
field sum 4840.997828442
field sqrsum 113854.63080842
field min 21.638221740235
field max 25.494054892994
attr interpolationmode  none
attr title  "Latency time of file print, stats"
attr unit  s
statistic UCACnet.owner[78] 	latency:stats
field count 202
field mean 23.496968568929
field stddev 0.68607746206213
field sum 4746.3876509236
field sqrsum 111620.33260878
field min 21.287700773311
field max 25.27561103294
attr interpolationmode  none
attr title  "Latency time of file print, stats"
attr unit  s
statistic UCACnet.owner[79] 	latency:stats
field count 205
field mean 23.487417530032
field stddev 0.66370336513158
field sum 4814.9205936566
field sqrsum 113179.91279717
field min 20.995452539246
field max 25.608297674456
attr interpolationmode  none
attr title  "Latency time of file print, stats"
attr unit  s
statistic UCACnet.owner[80] 	latency:stats
field count 199
field mean 23.465888990293
field stddev 0.678120743006
field sum 4669.7119090683
field sqrsum 109669.99112778
field min 21.788777175676
field max 24.933890524612
attr interpolationmode  none
attr title  "Latency time of file print, stats"
attr unit  s
statistic UCACnet.owner[81] 	latency:stats
field count 206
field mean 23.476829321888
field stddev 0.64431067578447
field sum 4836.2268403089
field sqrsum 113624.37502249
field min 21.879214545938
field max 25.623726636617
attr interpolationmode  none
attr title  "Latency time of file print, stats"
attr unit  s
statistic UCACnet.owner[82] 	latency:stats
field count 209
field mean 23.521308847493
field stddev 0.63972345937211
field sum 4915.953549126
field sqrsum 115714.78489865
field min 21.915285473491
field max 25.459788473934
attr interpolationmode  none
attr title  "Latency time of file print, stats"
attr unit  s
statistic UCACnet.owner[83] 	latency:stats
field count 200
field mean 23.514603668546
field stddev 0.71308714977565
field sum 4702.9207337091
field sqrsum 110688.50730111
field min 21.736474800314
field max 25.449689677077
attr interpolationmode  none
attr title  "Latency time of file print, stats"
attr unit  s
statistic UCACnet.owner[84] 	latency:stats
field count 193
field mean 23.533514889422
field stddev 0.62781200576562
field sum 4541.9683736584
field sqrsum 106964.15674837
field min 21.943338440536
field max 25.194350882703
attr interpolationmode  none
attr title  "Latency time of file print, stats"
attr unit  s
statistic UCACnet.owner[85] 	latency:stats
field count 202
field mean 23.540836576119
field stddev 0.88059270477799
field sum 4755.2489883761
field sqrsum 112098.40345997
field min 15.222395248889
field max 25.276505408124
attr interpolationmode  none
attr title  "Latency time of file print, stats"
attr unit  s
statistic UCACnet.owner[86] 	latency:stats
field count 202
field mean 23.428451323348
field stddev 0.98553190044942
field sum 4732.5471673162
field sqrsum 111071.4768434
field min 13.270854601977
field max 25.338025908316
attr interpolationmode  none
attr title  "Latency time of file print, stats"
attr unit  s
statistic UCACnet.owner[87] 	latency:stats
field count 202
field mean 23.518860177234
field stddev 0.67764392027508
field sum 4750.8097558013
field sqrsum 111825.92983315
field min 21.620497730347
field max 25.584332684176
attr interpolationmode  none
attr title  "Latency time of file print, stats"
attr unit  s
statistic UCACnet.owner[88] 	latency:stats
field count 199
field mean 23.457121466517
field stddev 0.68487118907129
field sum 4667.9671718369
field sqrsum 109589.94456353
field min 21.833922196901
field max 25.399576067188
attr interpolationmode  none
attr title  "Latency time of file print, stats"
attr unit  s
statistic UCACnet.owner[89] 	latency:stats
field count 207
field mean 23.509983641212
field stddev 0.65172649003822
field sum 4866.5666137309
field sqrsum 114500.39944575
field min 21.91876522354
field max 25.487141075135
attr interpolationmode  none
attr title  "Latency time of file print, stats"
attr unit  s
statistic UCACnet.owner[90] 	latency:stats
field count 208
field mean 23.511549091955
field stddev 0.67289435804572
field sum 4890.4022111267
field sqrsum 115074.65853745
field min 21.353342350777
field max 25.10820982529
attr interpolationmode  none
attr title  "Latency time of file print, stats"
attr unit  s
statistic UCACnet.owner[91] 	latency:stats
field count 200
field mean 23.492687820229
field stddev 0.75757394302725
field sum 4698.5375640459
field sqrsum 110495.4859413
field min 17.665746846462
field max 25.254829491725
attr interpolationmode  none
attr title  "Latency time of file print, stats"
attr unit  s
statistic UCACnet.owner[92] 	latency:stats
field count 203
field mean 23.518419759555
field stddev 0.75728863755571
field sum 4774.2392111897
field sqrsum 112398.40598956
field min 19.021940445813
field max 25.31783718449
attr interpolationmode  none
attr title  "Latency time of file print, stats"
attr unit  s
statistic UCACnet.owner[93] 	latency:stats
field count 205
field mean 23.524338290374
field stddev 0.68357578773782
field sum 4822.4893495266
field sqrsum 113541.19513493
field min 21.344293211364
field max 25.460930135942
attr interpolationmode  none
attr title  "Latency time of file print, stats"
attr unit  s
statistic UCACnet.owner[94] 	latency:stats
field count 202
field mean 23.500649203645
field stddev 0.83693929268409
field sum 4747.1311391362
field sqrsum 111701.45756784
field min 16.397720622356
field max 25.595992368633
attr interpolationmode  none
attr title  "Latency time of file print, stats"
attr unit  s
statistic UCACnet.owner[95] 	latency:stats
field count 208
field mean 23.49290734946
field stddev 0.69477384843278
field sum 4886.5247286877
field sqrsum 114898.5938269
field min 21.608665736567
field max 25.141103456475
attr interpolationmode  none
attr title  "Latency time of file print, stats"
attr unit  s
statistic UCACnet.owner[96] 	latency:stats
field count 205
field mean 23.521141435109
field stddev 0.66886517734534
field sum 4821.8339941973
field sqrsum 113506.30500172
field min 21.568387863814
field max 25.02189652428
attr interpolationmode  none
attr title  "Latency time of file print, stats"
attr unit  s
statistic UCACnet.owner[97] 	latency:stats
field count 201
field mean 23.510896174
field stddev 0.65883835681704
field sum 4725.6901309739
field sqrsum 111192.02361591
field min 21.204195923389
field max 25.022553500538
attr interpolationmode  none
attr title  "Latency time of file print, stats"
attr unit  s
statistic UCACnet.owner[98] 	latency:stats
field count 206
field mean 23.525590580196
field stddev 0.66198796462387
field sum 4846.2716595203
field sqrsum 114101.23965567
field min 21.839065464255
field max 25.573867362337
attr interpolationmode  none
attr title  "Latency time of file print, stats"
attr unit  s
statistic UCACnet.owner[99] 	latency:stats
field count 203
field mean 23.503379481969
field stddev 0.67669790386803
field sum 4771.1860348398
field sqrsum 112231.49580664
field min 21.513429463984
field max 25.208496502918
attr interpolationmode  none
attr title  "Latency time of file print, stats"
attr unit  s
statistic UCACnet.owner[100] 	latency:stats
field count 210
field mean 23.570793140083
field stddev 0.66369628133573
field sum 4949.8665594173
field sqrsum 116764.34372859
field min 21.90784460276
field max 25.35126300361
attr interpolationmode  none
attr title  "Latency time of file print, stats"
attr unit  s
statistic UCACnet.owner[101] 	latency:stats
field count 203
field mean 23.451117202462
field stddev 1.0895572342619
field sum 4760.5767920998
field sqrsum 111880.64556613
field min 11.65417594251
field max 25.637003334849
attr interpolationmode  none
attr title  "Latency time of file print, stats"
attr unit  s
statistic UCACnet.owner[102] 	latency:stats
field count 202
field mean 23.57402669042
field stddev 0.70723925190847
field sum 4761.9533914648
field sqrsum 112358.95400817
field min 20.998240809468
field max 25.457294161598
attr interpolationmode  none
attr title  "Latency time of file print, stats"
attr unit  s
statistic UCACnet.owner[103] 	latency:stats
field count 205
field mean 23.464045429257
field stddev 0.66230686297963
field sum 4810.1293129978
field sqrsum 112954.57739846
field min 21.311210329747
field max 25.153930946155
attr interpolationmode  none
attr title  "Latency time of file print, stats"
attr unit  s
statistic UCACnet.owner[104] 	latency:stats
field count 201
field mean 23.549949261015
field stddev 0.68589522539507
field sum 4733.539801464
field sqrsum 111568.71260151
field min 21.929637481525
field max 25.247640846145
attr interpolationmode  none
attr title  "Latency time of file print, stats"
attr unit  s
statistic UCACnet.owner[105] 	latency:stats
field count 198
field mean 23.486821429126
field stddev 0.68527687753482
field sum 4650.390642967
field sqrsum 109315.40667363
field min 21.766517788037
field max 25.112203040161
attr interpolationmode  none
attr title  "Latency time of file print, stats"
attr unit  s
statistic UCACnet.owner[106] 	latency:stats
field count 205
field mean 23.499447102412
field stddev 0.87426980572782
field sum 4817.3866559944
field sqrsum 113361.84982382
field min 15.40565642508
field max 25.049271754603
attr interpolationmode  none
attr title  "Latency time of file print, stats"
attr unit  s
statistic UCACnet.owner[107] 	latency:stats
field count 201
field mean 23.505617845208
field stddev 0.66339603092935
field sum 4724.6291868868
field sqrsum 111143.34698605
field min 21.543567185285
field max 24.866802225294
attr interpolationmode  none
attr title  "Latency time of file print, stats"
attr unit  s
statistic UCACnet.owner[108] 	latency:stats
field count 200
field mean 23.433549383995
field stddev 0.6665633781172
field sum 4686.7098767991
field sqrsum 109914.6643871
field min 18.872992318885
field max 24.649687798888
attr interpolationmode  none
attr title  "Latency time of file print, stats"
attr unit  s
statistic UCACnet.owner[109] 	latency:stats
field count 200
field mean 23.483830362141
field stddev 0.69092660820747
field sum 4696.7660724281
field sqrsum 110393.05623157
field min 21.399325518352
field max 24.998147680335
attr interpolationmode  none
attr title  "Latency time of file print, stats"
attr unit  s
statistic UCACnet.owner[110] 	latency:stats
field count 203
field mean 23.450585588853
field stddev 0.80093888496582
field sum 4760.4688745372
field sqrsum 111765.36641109
field min 17.464872052384
field max 25.439182641838
attr interpolationmode  none
attr title  "Latency time of file print, stats"
attr unit  s
statistic UCACnet.owner[111] 	latency:stats
field count 194
field mean 23.538279633697
field stddev 0.65071395602995
field sum 4566.4262489372
field sqrsum 107567.53970409
field min 21.600657920217
field max 25.509267427371
attr interpolationmode  none
attr title  "Latency time of file print, stats"
attr unit  s
statistic UCACnet.owner[112] 	latency:stats
field count 204
field mean 23.550483133373
field stddev 0.66643088104979
field sum 4804.298559208
field sqrsum 113233.71060052
field min 20.939207901348
field max 24.91959441366
attr interpolationmode  none
attr title  "Latency time of file print, stats"
attr unit  s
statistic UCACnet.owner[113] 	latency:stats
field count 206
field mean 23.478239844876
field stddev 0.6519088585351
field sum 4836.5174080444
field sqrsum 113640.03767775
field min 21.841069112495
field max 25.463588931035
attr interpolationmode  none
attr title  "Latency time of file print, stats"
attr unit  s
statistic UCACnet.owner[114] 	latency:stats
field count 204
field mean 23.495668781371
field stddev 0.71803166622956
field sum 4793.1164313997
field sqrsum 112722.13670588
field min 20.165202173968
field max 24.957250326969
attr interpolationmode  none
attr title  "Latency time of file print, stats"
attr unit  s
statistic UCACnet.owner[115] 	latency:stats
field count 203
field mean 23.546283082275
field stddev 0.66169948331437
field sum 4779.8954657019
field sqrsum 112637.21667276
field min 21.899385261568
field max 25.465444981495
attr interpolationmode  none
attr title  "Latency time of file print, stats"
attr unit  s
statistic UCACnet.owner[116] 	latency:stats
field count 206
field mean 23.488119449242
field stddev 0.65164886990183
field sum 4838.5526065439
field sqrsum 113735.55406512
field min 21.724382470693
field max 25.125421124687
attr interpolationmode  none
attr title  "Latency time of file print, stats"
attr unit  s
statistic UCACnet.owner[117] 	latency:stats
field count 196
field mean 23.541456898231
field stddev 0.6591387031143
field sum 4614.1255520533
field sqrsum 108707.95825353
field min 21.783819165732
field max 25.524093479469
attr interpolationmode  none
attr title  "Latency time of file print, stats"
attr unit  s
statistic UCACnet.owner[118] 	latency:stats
field count 197
field mean 23.545341317211
field stddev 0.70765191247794
field sum 4638.4322394905
field sqrsum 109311.62141649
field min 19.963237421851
field max 24.937928847517
attr interpolationmode  none
attr title  "Latency time of file print, stats"
attr unit  s
statistic UCACnet.owner[119] 	latency:stats
field count 202
field mean 23.575516782198
field stddev 0.64125754730592
field sum 4762.254390004
field sqrsum 112355.26175227
field min 21.221600367512
field max 25.508637167917
attr interpolationmode  none
attr title  "Latency time of file print, stats"
attr unit  s
statistic UCACnet.owner[120] 	latency:stats
field count 196
field mean 23.453522129189
field stddev 0.78456068642616
field sum 4596.8903373211
field sqrsum 107933.2986686
field min 17.398732945179
field max 25.311435843348
attr interpolationmode  none
attr title  "Latency time of file print, stats"
attr unit  s
statistic UCACnet.owner[121] 	latency:stats
field count 207
field mean 23.511560487001
field stddev 0.65355762943591
field sum 4866.8930208091
field sqrsum 114516.23998296
field min 21.879207653103
field max 25.021865322237
attr interpolationmode  none
attr title  "Latency time of file print, stats"
attr unit  s
statistic UCACnet.owner[122] 	latency:stats
field count 200
field mean 23.470276577815
field stddev 0.86386344892704
field sum 4694.055315563
field sqrsum 110319.28227944
field min 15.722453408716
field max 25.383747308053
attr interpolationmode  none
attr title  "Latency time of file print, stats"
attr unit  s
statistic UCACnet.owner[123] 	latency:stats
field count 209
field mean 23.510192457529
field stddev 0.69563576658693
field sum 4913.6302236235
field sqrsum 115621.04531943
field min 20.954109908523
field max 25.485713072313
attr interpolationmode  none
attr title  "Latency time of file print, stats"
attr unit  s
statistic UCACnet.owner[124] 	latency:stats
field count 198
field mean 23.553720127534
field stddev 0.71200581244484
field sum 4663.6365852517
field sqrsum 109945.86050411
field min 21.569485670126
field max 25.592278742456
attr interpolationmode  none
attr title  "Latency time of file print, stats"
attr unit  s
statistic UCACnet.owner[125] 	latency:stats
field count 202
field mean 23.514697876426
field stddev 0.7013091771262
field sum 4749.968971038
field sqrsum 111792.9440233
field min 21.250614194366
field max 25.591090121584
attr interpolationmode  none
attr title  "Latency time of file print, stats"
attr unit  s
statistic UCACnet.owner[126] 	latency:stats
field count 199
field mean 23.464040924294
field stddev 0.81544603226916
field sum 4669.3441439345
field sqrsum 109693.34262474
field min 16.644884814119
field max 25.575739394068
attr interpolationmode  none
attr title  "Latency time of file print, stats"
attr unit  s
statistic UCACnet.owner[127] 	latency:stats
field count 207
field mean 23.511359862024
field stddev 0.69662248319028
field sum 4866.8514914391
field sqrsum 114526.26508438
field min 21.788830015935
field max 25.405930130893
attr interpolationmode  none
attr title  "Latency time of file print, stats"
attr unit  s
statistic UCACnet.owner[128] 	latency:stats
field count 205
field mean 23.448716392271
field stddev 0.77771832200885
field sum 4806.9868604156
field sqrsum 112841.06013209
field min 18.447201541568
field max 24.941631547248
attr interpolationmode  none
attr title  "Latency time of file print, stats"
attr unit  s
statistic UCACnet.owner[129] 	latency:stats
field count 194
field mean 23.579442111515
field stddev 0.59755451010033
field sum 4574.4117696338
field sqrsum 107930.99229507
field min 22.155295755347
field max 25.151925198638
attr interpolationmode  none
attr title  "Latency time of file print, stats"
attr unit  s
statistic UCACnet.owner[130] 	latency:stats
field count 197
field mean 23.522221387679
field stddev 0.62466493557999
field sum 4633.8776133727
field sqrsum 109075.57553638
field min 21.9443488531
field max 25.207425453493
attr interpolationmode  none
attr title  "Latency time of file print, stats"
attr unit  s
statistic UCACnet.owner[131] 	latency:stats
field count 193
field mean 23.510899969693
field stddev 0.66677018734179
field sum 4537.6036941507
field sqrsum 106768.50639197
field min 21.461847404038
field max 25.190284133322
attr interpolationmode  none
attr title  "Latency time of file print, stats"
attr unit  s
statistic UCACnet.owner[132] 	latency:stats
field count 195
field mean 23.531780726068
field stddev 0.65900557208788
field sum 4588.6972415833
field sqrsum 108064.469246
field min 21.641747645803
field max 25.581373436832
attr interpolationmode  none
attr title  "Latency time of file print, stats"
attr unit  s
statistic UCACnet.owner[133] 	latency:stats
field count 195
field mean 23.460828679133
field stddev 1.1712687280394
field sum 4574.8615924309
field sqrsum 107596.18691482
field min 9.857361722332
field max 25.151537273157
attr interpolationmode  none
attr title  "Latency time of file print, stats"
attr unit  s
statistic UCACnet.owner[134] 	latency:stats
field count 210
field mean 23.474444931672
field stddev 0.88679773164851
field sum 4929.6334356512
field sqrsum 115884.76835385
field min 15.108558691391
field max 25.502938425533
attr interpolationmode  none
attr title  "Latency time of file print, stats"
attr unit  s
statistic UCACnet.owner[135] 	latency:stats
field count 199
field mean 23.544850411531
field stddev 0.67678866122517
field sum 4685.4252318947
field sqrsum 110408.32869198
field min 21.921954014489
field max 25.526626427184
attr interpolationmode  none
attr title  "Latency time of file print, stats"
attr unit  s
statistic UCACnet.owner[136] 	latency:stats
field count 201
field mean 23.536259864445
field stddev 0.63995216549587
field sum 4730.7882327534
field sqrsum 111426.96896457
field min 21.720721516419
field max 25.411758373002
attr interpolationmode  none
attr title  "Latency time of file print, stats"
attr unit  s
statistic UCACnet.owner[137] 	latency:stats
field count 201
field mean 23.552932863782
field stddev 0.63753556369401
field sum 4734.1395056202
field sqrsum 111584.16026265
field min 21.967436139953
field max 25.067641917101
attr interpolationmode  none
attr title  "Latency time of file print, stats"
attr unit  s
statistic UCACnet.owner[138] 	latency:stats
field count 208
field mean 23.432133289245
field stddev 0.89988144836925
field sum 4873.883724163
field sqrsum 114373.11889144
field min 15.039659753551
field max 24.948282471252
attr interpolationmode  none
attr title  "Latency time of file print, stats"
attr unit  s
statistic UCACnet.owner[139] 	latency:stats
field count 205
field mean 23.509184608056
field stddev 0.64411167407432
field sum 4819.3828446515
field sqrsum 113384.39648094
field min 22.0223166579
field max 24.970585353912
attr interpolationmode  none
attr title  "Latency time of file print, stats"
attr unit  s
statistic UCACnet.owner[140] 	latency:stats
field count 200
field mean 23.5223862965
field stddev 0.71174407344697
field sum 4704.4772593
field sqrsum 110761.34076195
field min 21.22646384981
field max 25.378997817048
attr interpolationmode  none
attr title  "Latency time of file print, stats"
attr unit  s
statistic UCACnet.owner[141] 	latency:stats
field count 207
field mean 23.530869681356
field stddev 0.67797230070582
field sum 4870.8900240406
field sqrsum 114710.96555466
field min 21.761066899447
field max 25.302290211671
attr interpolationmode  none
attr title  "Latency time of file print, stats"
attr unit  s
statistic UCACnet.owner[142] 	latency:stats
field count 205
field mean 23.518111047948
field stddev 0.61775566867438
field sum 4821.2127648293
field sqrsum 113463.66809054
field min 21.66250930617
field max 24.90194225669
attr interpolationmode  none
attr title  "Latency time of file print, stats"
attr unit  s
statistic UCACnet.owner[143] 	latency:stats
field count 205
field mean 23.509460613363
field stddev 0.65228884085878
field sum 4819.4394257395
field sqrsum 113389.21942722
field min 21.630430175209
field max 24.85462187157
attr interpolationmode  none
attr title  "Latency time of file print, stats"
attr unit  s
statistic UCACnet.owner[144] 	latency:stats
field count 215
field mean 23.507011256611
field stddev 0.66855854660437
field sum 5054.0074201713
field sqrsum 118900.26101043
field min 21.540681805364
field max 25.252867113319
attr interpolationmode  none
attr title  "Latency time of file print, stats"
attr unit  s
statistic UCACnet.owner[145] 	latency:stats
field count 207
field mean 23.449001911171
field stddev 1.0206924605303
field sum 4853.9433956124
field sqrsum 114034.74145882
field min 13.032738242403
field max 25.531057264024
attr interpolationmode  none
attr title  "Latency time of file print, stats"
attr unit  s
statistic UCACnet.owner[146] 	latency:stats
field count 203
field mean 23.540468568018
field stddev 0.70820244321584
field sum 4778.7151193076
field sqrsum 112594.50630309
field min 21.916394774832
field max 25.296549840414
attr interpolationmode  none
attr title  "Latency time of file print, stats"
attr unit  s
statistic UCACnet.owner[147] 	latency:stats
field count 202
field mean 23.506417777637
field stddev 0.65788685121011
field sum 4748.2963910827
field sqrsum 111702.43453774
field min 21.538184490846
field max 25.000724365539
attr interpolationmode  none
attr title  "Latency time of file print, stats"
attr unit  s
statistic UCACnet.owner[148] 	latency:stats
field count 203
field mean 23.480027686466
field stddev 0.67631370856231
field sum 4766.4456203525
field sqrsum 112008.66997885
field min 21.644241437899
field max 25.519650186208
attr interpolationmode  none
attr title  "Latency time of file print, stats"
attr unit  s
statistic UCACnet.owner[149] 	latency:stats
field count 204
field mean 23.461853109981
field stddev 1.1266022142946
field sum 4786.2180344362
field sqrsum 112551.19868378
field min 10.396106225179
field max 24.773238772128
attr interpolationmode  none
attr title  "Latency time of file print, stats"
attr unit  s
statistic UCACnet.owner[150] 	latency:stats
field count 208
field mean 23.428932814934
field stddev 1.0389297367001
field sum 4873.2180255063
field sqrsum 114397.72833666
field min 11.826244516058
field max 25.605976672192
attr interpolationmode  none
attr title  "Latency time of file print, stats"
attr unit  s
statistic UCACnet.owner[151] 	latency:stats
field count 206
field mean 23.555687564772
field stddev 0.64673663028897
field sum 4852.471638343
field sqrsum 114389.05082486
field min 21.335556298077
field max 25.171892529787
attr interpolationmode  none
attr title  "Latency time of file print, stats"
attr unit  s
statistic UCACnet.owner[152] 	latency:stats
field count 200
field mean 23.518620183138
field stddev 0.71374474215408
field sum 4703.7240366276
field sqrsum 110726.47594358
field min 20.945905097003
field max 25.212940095439
attr interpolationmode  none
attr title  "Latency time of file print, stats"
attr unit  s
statistic UCACnet.owner[153] 	latency:stats
field count 201
field mean 23.55455696997
field stddev 0.66503794337185
field sum 4734.4659509639
field sqrsum 111606.70305759
field min 21.683922207907
field max 25.652392125943
attr interpolationmode  none
attr title  "Latency time of file print, stats"
attr unit  s
statistic UCACnet.owner[154] 	latency:stats
field count 198
field mean 23.446831478688
field stddev 0.88188275060035
field sum 4642.4726327803
field sqrsum 109004.48375082
field min 16.131439853528
field max 25.488317070384
attr interpolationmode  none
attr title  "Latency time of file print, stats"
attr unit  s
statistic UCACnet.owner[155] 	latency:stats
field count 201
field mean 23.516820343616
field stddev 0.69536309795195
field sum 4726.8808890668
field sqrsum 111257.91462146
field min 21.564764866737
field max 25.460462091714
attr interpolationmode  none
attr title  "Latency time of file print, stats"
attr unit  s
statistic UCACnet.owner[156] 	latency:stats
field count 199
field mean 23.5075871209
field stddev 0.67546509005065
field sum 4678.0098370591
field sqrsum 110059.0619085
field min 21.238246612827
field max 24.934864123429
attr interpolationmode  none
attr title  "Latency time of file print, stats"
attr unit  s
statistic UCACnet.owner[157] 	latency:stats
field count 209
field mean 23.490564627943
field stddev 0.67839344086989
field sum 4909.5280072401
field sqrsum 115423.31022018
field min 22.011949508252
field max 24.908796935038
attr interpolationmode  none
attr title  "Latency time of file print, stats"
attr unit  s
statistic UCACnet.owner[158] 	latency:stats
field count 208
field mean 23.460653152485
field stddev 0.84766668125807
field sum 4879.8158557168
field sqrsum 114632.40477109
field min 16.064121142387
field max 25.456093957484
attr interpolationmode  none
attr title  "Latency time of file print, stats"
attr unit  s
statistic UCACnet.owner[159] 	latency:stats
field count 203
field mean 23.535493117307
field stddev 0.66727243647093
field sum 4777.7051028134
field sqrsum 112535.58656969
field min 21.850594837351
field max 25.163952560434
attr interpolationmode  none
attr title  "Latency time of file print, stats"
attr unit  s
statistic UCACnet.owner[160] 	latency:stats
field count 209
field mean 23.49218142722
field stddev 0.69604430059384
field sum 4909.8659182889
field sqrsum 115444.23229079
field min 21.005977094452
field max 25.447804368514
attr interpolationmode  none
attr title  "Latency time of file print, stats"
attr unit  s
statistic UCACnet.owner[161] 	latency:stats
field count 207
field mean 23.541447852257
field stddev 0.62228791344621
field sum 4873.0797054172
field sqrsum 114799.1236679
field min 22.119941677315
field max 25.110389488592
attr interpolationmode  none
attr title  "Latency time of file print, stats"
attr unit  s
statistic UCACnet.owner[162] 	latency:stats
field count 200
field mean 23.53336375949
field stddev 0.65211812256108
field sum 4706.6727518981
field sqrsum 110848.46831841
field min 21.885023313478
field max 25.56739660619
attr interpolationmode  none
attr title  "Latency time of file print, stats"
attr unit  s
statistic UCACnet.owner[163] 	latency:stats
field count 202
field mean 23.508909134433
field stddev 0.61107845199563
field sum 4748.7996451554
field sqrsum 111714.15614736
field min 22.138153983255
field max 24.901471168998
attr interpolationmode  none
attr title  "Latency time of file print, stats"
attr unit  s
statistic UCACnet.owner[164] 	latency:stats
field count 212
field mean 23.511006796519
field stddev 0.95810343372069
field sum 4984.3334408621
field sqrsum 117380.38742625
field min 13.371033491819
field max 24.985266108514
attr interpolationmode  none
attr title  "Latency time of file print, stats"
attr unit  s
statistic UCACnet.owner[165] 	latency:stats
field count 203
field mean 23.510554763661
field stddev 0.73975748684393
field sum 4772.6426170232
field sqrsum 112318.01832505
field min 19.254053025823
field max 25.446093122976
attr interpolationmode  none
attr title  "Latency time of file print, stats"
attr unit  s
statistic UCACnet.owner[166] 	latency:stats
field count 195
field mean 23.51467251648
field stddev 0.67221562808175
field sum 4585.3611407136
field sqrsum 107910.9291207
field min 21.95080514951
field max 25.590564842723
attr interpolationmode  none
attr title  "Latency time of file print, stats"
attr unit  s
statistic UCACnet.owner[167] 	latency:stats
field count 204
field mean 23.522067558219
field stddev 0.67319598551955
field sum 4798.5017818767
field sqrsum 112962.68123703
field min 21.722770598211
field max 25.606046197375
attr interpolationmode  none
attr title  "Latency time of file print, stats"
attr unit  s
statistic UCACnet.owner[168] 	latency:stats
field count 211
field mean 23.49699349657
field stddev 0.6842696904536
field sum 4957.8656277763
field sqrsum 116593.26366467
field min 21.346023274622
field max 25.294404048671
attr interpolationmode  none
attr title  "Latency time of file print, stats"
attr unit  s
statistic UCACnet.owner[169] 	latency:stats
field count 206
field mean 23.537857628612
field stddev 0.67076365381978
field sum 4848.7986714942
field sqrsum 114222.56719469
field min 21.91590239114
field max 25.513121111556
attr interpolationmode  none
attr title  "Latency time of file print, stats"
attr unit  s
statistic UCACnet.owner[170] 	latency:stats
field count 211
field mean 23.463006103639
field stddev 0.66878336278381
field sum 4950.6942878678
field sqrsum 116252.09724262
field min 20.465859105662
field max 25.069040965212
attr interpolationmode  none
attr title  "Latency time of file print, stats"
attr unit  s
statistic UCACnet.owner[171] 	latency:stats
field count 201
field mean 23.50819427841
field stddev 0.67610173191423
field sum 4725.1470499605
field sqrsum 111171.09755491
field min 21.427800030114
field max 25.348148626178
attr interpolationmode  none
attr title  "Latency time of file print, stats"
attr unit  s
statistic UCACnet.owner[172] 	latency:stats
field count 207
field mean 23.56839220337
field stddev 0.67190090895214
field sum 4878.6571860976
field sqrsum 115075.10485902
field min 21.241149574671
field max 25.194380028162
attr interpolationmode  none
attr title  "Latency time of file print, stats"
attr unit  s
statistic UCACnet.owner[173] 	latency:stats
field count 205
field mean 23.457703282783
field stddev 0.66882825157167
field sum 4808.8291729705
field sqrsum 112895.34344807
field min 21.5528390599
field max 24.97000819079
attr interpolationmode  none
attr title  "Latency time of file print, stats"
attr unit  s
statistic UCACnet.owner[174] 	latency:stats
field count 204
field mean 23.529993017336
field stddev 0.88643482743609
field sum 4800.1185755364
field sqrsum 113106.26720552
field min 14.977504422458
field max 25.438495785836
attr interpolationmode  none
attr title  "Latency time of file print, stats"
attr unit  s
statistic UCACnet.owner[175] 	latency:stats
field count 199
field mean 23.469287601075
field stddev 0.68258853719796
field sum 4670.3882326139
field sqrsum 109702.93820789
field min 21.285307324905
field max 25.006370572906
attr interpolationmode  none
attr title  "Latency time of file print, stats"
attr unit  s
statistic UCACnet.owner[176] 	latency:stats
field count 207
field mean 23.543441995945
field stddev 0.66932620340065
field sum 4873.4924931606
field sqrsum 114831.07532911
field min 21.608664193683
field max 25.595007521523
attr interpolationmode  none
attr title  "Latency time of file print, stats"
attr unit  s
statistic UCACnet.owner[177] 	latency:stats
field count 206
field mean 23.487555311406
field stddev 0.87356480826005
field sum 4838.4363941496
field sqrsum 113799.48110053
field min 14.512302683245
field max 25.411551751962
attr interpolationmode  none
attr title  "Latency time of file print, stats"
attr unit  s
statistic UCACnet.owner[178] 	latency:stats
field count 195
field mean 23.548209363897
field stddev 0.67683529102182
field sum 4591.9008259599
field sqrsum 108219.91459412
field min 21.713455958731
field max 25.171032696096
attr interpolationmode  none
attr title  "Latency time of file print, stats"
attr unit  s
statistic UCACnet.owner[179] 	latency:stats
field count 209
field mean 23.496967698187
field stddev 0.6997245957627
field sum 4910.8662489211
field sqrsum 115492.30543908
field min 20.77660335135
field max 25.549411606283
attr interpolationmode  none
attr title  "Latency time of file print, stats"
attr unit  s
statistic UCACnet.owner[180] 	latency:stats
field count 201
field mean 23.484114730707
field stddev 0.71721047630743
field sum 4720.3070608721
field sqrsum 110955.11075515
field min 21.582405365655
field max 25.470595001825
attr interpolationmode  none
attr title  "Latency time of file print, stats"
attr unit  s
statistic UCACnet.owner[181] 	latency:stats
field count 204
field mean 23.482318308391
field stddev 1.1810623853829
field sum 4790.3929349117
field sqrsum 112772.69811657
field min 9.612
field max 25.549791994181
attr interpolationmode  none
attr title  "Latency time of file print, stats"
attr unit  s
statistic UCACnet.owner[182] 	latency:stats
field count 199
field mean 23.508676587532
field stddev 0.66567172373311
field sum 4678.2266409189
field sqrsum 110066.65463561
field min 21.991438000124
field max 25.449499994706
attr interpolationmode  none
attr title  "Latency time of file print, stats"
attr unit  s
statistic UCACnet.owner[183] 	latency:stats
field count 210
field mean 23.449284441373
field stddev 0.68626873095021
field sum 4924.3497326884
field sqrsum 115570.90920777
field min 21.478398340214
field max 25.193594066929
attr interpolationmode  none
attr title  "Latency time of file print, stats"
attr unit  s
statistic UCACnet.owner[184] 	latency:stats
field count 202
field mean 23.486012039629
field stddev 0.80290476314886
field sum 4744.1744320051
field sqrsum 111551.31369597
field min 16.492700371033
field max 24.899466399867
attr interpolationmode  none
attr title  "Latency time of file print, stats"
attr unit  s
statistic UCACnet.owner[185] 	latency:stats
field count 207
field mean 23.488852409255
field stddev 0.68836940226013
field sum 4862.1924487159
field sqrsum 114304.93441468
field min 21.322156996902
field max 25.347080281542
attr interpolationmode  none
attr title  "Latency time of file print, stats"
attr unit  s
statistic UCACnet.owner[186] 	latency:stats
field count 206
field mean 23.532347398759
field stddev 0.70854691246487
field sum 4847.6635641443
field sqrsum 114179.82100282
field min 21.74781805489
field max 25.592197137627
attr interpolationmode  none
attr title  "Latency time of file print, stats"
attr unit  s
statistic UCACnet.owner[187] 	latency:stats
field count 210
field mean 23.488734275949
field stddev 0.64998359477625
field sum 4932.6341979492
field sqrsum 115949.63199884
field min 21.569763465372
field max 25.586157947852
attr interpolationmode  none
attr title  "Latency time of file print, stats"
attr unit  s
statistic UCACnet.owner[188] 	latency:stats
field count 203
field mean 23.533732121184
field stddev 0.69724295268227
field sum 4777.3476206003
field sqrsum 112527.02099546
field min 21.057465836379
field max 25.582029121123
attr interpolationmode  none
attr title  "Latency time of file print, stats"
attr unit  s
statistic UCACnet.owner[189] 	latency:stats
field count 200
field mean 23.493457691378
field stddev 0.70637502869476
field sum 4698.6915382756
field sqrsum 110487.80502986
field min 20.454830269017
field max 24.909594102369
attr interpolationmode  none
attr title  "Latency time of file print, stats"
attr unit  s
statistic UCACnet.owner[190] 	latency:stats
field count 209
field mean 23.504665968342
field stddev 0.78385227204145
field sum 4912.4751873835
field sqrsum 115593.88862917
field min 18.046503120968
field max 25.301400665797
attr interpolationmode  none
attr title  "Latency time of file print, stats"
attr unit  s
statistic UCACnet.owner[191] 	latency:stats
field count 206
field mean 23.506944000025
field stddev 0.69666522904576
field sum 4842.4304640052
field sqrsum 113930.23694187
field min 21.795961655593
field max 25.688888352356
attr interpolationmode  none
attr title  "Latency time of file print, stats"
attr unit  s
statistic UCACnet.owner[192] 	latency:stats
field count 205
field mean 23.538689937812
field stddev 0.69246231869754
field sum 4825.4314372514
field sqrsum 113682.15324645
field min 21.26672333048
field max 25.565933648251
attr interpolationmode  none
attr title  "Latency time of file print, stats"
attr unit  s
statistic UCACnet.owner[193] 	latency:stats
field count 209
field mean 23.4966142308
field stddev 0.64767826876161
field sum 4910.7923742373
field sqrsum 115474.24731009
field min 21.599095915649
field max 24.87540410612
attr interpolationmode  none
attr title  "Latency time of file print, stats"
attr unit  s
statistic UCACnet.owner[194] 	latency:stats
field count 201
field mean 23.469755262981
field stddev 1.1131996296585
field sum 4717.4208078593
field sqrsum 110964.55451605
field min 10.484882918684
field max 25.019799967824
attr interpolationmode  none
attr title  "Latency time of file print, stats"
attr unit  s
statistic UCACnet.owner[195] 	latency:stats
field count 204
field mean 23.491901882547
field stddev 0.8173155141596
field sum 4792.3479840395
field sqrsum 112716.97357196
field min 17.625484986793
field max 25.438226817028
attr interpolationmode  none
attr title  "Latency time of file print, stats"
attr unit  s
statistic UCACnet.owner[196] 	latency:stats
field count 203
field mean 23.463412304582
field stddev 0.62000081983028
field sum 4763.0726978302
field sqrsum 111835.58755124
field min 22.070922478755
field max 25.111552303237
attr interpolationmode  none
attr title  "Latency time of file print, stats"
attr unit  s
statistic UCACnet.owner[197] 	latency:stats
field count 209
field mean 23.522170716973
field stddev 0.64554106020829
field sum 4916.1336798474
field sqrsum 115724.814123
field min 21.617888871037
field max 25.634803985626
attr interpolationmode  none
attr title  "Latency time of file print, stats"
attr unit  s
statistic UCACnet.owner[198] 	latency:stats
field count 203
field mean 23.459754155097
field stddev 1.1866940161817
field sum 4762.3300934847
field sqrsum 112007.55822156
field min 9.334942101717
field max 24.801414451217
attr interpolationmode  none
attr title  "Latency time of file print, stats"
attr unit  s
statistic UCACnet.owner[199] 	latency:stats
field count 206
field mean 23.485574205064
field stddev 0.84830097734309
field sum 4838.0282862433
field sqrsum 113771.39330514
field min 17.070592444335
field max 25.182656235477
attr interpolationmode  none
attr title  "Latency time of file print, stats"
attr unit  s
statistic UCACnet.owner[200] 	latency:stats
field count 205
field mean 23.504698012983
field stddev 0.61620346194832
field sum 4818.4630926615
field sqrsum 113333.98004784
field min 21.673561445208
field max 25.141909838258
attr interpolationmode  none
attr title  "Latency time of file print, stats"
attr unit  s
statistic UCACnet.owner[201] 	latency:stats
field count 202
field mean 23.527950237257
field stddev 0.66131941406754
field sum 4752.6459479258
field sqrsum 111907.92337495
field min 21.965449208901
field max 25.285200203462
attr interpolationmode  none
attr title  "Latency time of file print, stats"
attr unit  s
statistic UCACnet.owner[202] 	latency:stats
field count 200
field mean 23.519154551239
field stddev 0.69575570391884
field sum 4703.8309102478
field sqrsum 110726.45728492
field min 20.648790898094
field max 25.540051106603
attr interpolationmode  none
attr title  "Latency time of file print, stats"
attr unit  s
statistic UCACnet.owner[203] 	latency:stats
field count 197
field mean 23.558608641737
field stddev 0.6426696292158
field sum 4641.0459024221
field sqrsum 109417.53685695
field min 21.56287451887
field max 24.966398565942
attr interpolationmode  none
attr title  "Latency time of file print, stats"
attr unit  s
statistic UCACnet.owner[204] 	latency:stats
field count 200
field mean 23.513374681552
field stddev 0.6775511801727
field sum 4702.6749363103
field sqrsum 110667.11382775
field min 21.282043644601
field max 25.515148051771
attr interpolationmode  none
attr title  "Latency time of file print, stats"
attr unit  s
statistic UCACnet.owner[205] 	latency:stats
field count 200
field mean 23.49353198691
field stddev 0.66696534028865
field sum 4698.7063973819
field sqrsum 110477.73275425
field min 21.044540124288
field max 25.331561625765
attr interpolationmode  none
attr title  "Latency time of file print, stats"
attr unit  s
statistic UCACnet.owner[206] 	latency:stats
field count 203
field mean 23.499177140697
field stddev 0.62835366481986
field sum 4770.3329595614
field sqrsum 112178.65455911
field min 21.984174896046
field max 25.061826243603
attr interpolationmode  none
attr title  "Latency time of file print, stats"
attr unit  s
statistic UCACnet.owner[207] 	latency:stats
field count 206
field mean 23.562872598838
field stddev 0.68941023317567
field sum 4853.9517553607
field sqrsum 114470.48053874
field min 21.633020406798
field max 25.654655438473
attr interpolationmode  none
attr title  "Latency time of file print, stats"
attr unit  s
statistic UCACnet.owner[208] 	latency:stats
field count 206
field mean 23.482869159458
field stddev 0.67614520342855
field sum 4837.4710468483
field sqrsum 113691.41998471
field min 20.02379778156
field max 24.859651479698
attr interpolationmode  none
attr title  "Latency time of file print, stats"
attr unit  s
statistic UCACnet.owner[209] 	latency:stats
field count 209
field mean 23.52641765183
field stddev 0.71447394180975
field sum 4917.0212892324
field sqrsum 115786.07484023
field min 21.234503116384
field max 25.539572361525
attr interpolationmode  none
attr title  "Latency time of file print, stats"
attr unit  s
statistic UCACnet.owner[210] 	latency:stats
field count 207
field mean 23.519706830138
field stddev 0.67482121069205
field sum 4868.5793138386
field sqrsum 114601.36717604
field min 20.95101097154
field max 25.560190216484
attr interpolationmode  none
attr title  "Latency time of file print, stats"
attr unit  s
statistic UCACnet.owner[211] 	latency:stats
field count 210
field mean 23.485321391807
field stddev 0.66552072370824
field sum 4931.9174922796
field sqrsum 115920.2372113
field min 21.392656342516
field max 24.970292281241
attr interpolationmode  none
attr title  "Latency time of file print, stats"
attr unit  s
statistic UCACnet.owner[212] 	latency:stats
field count 203
field mean 23.504227358707
field stddev 0.67830033592678
field sum 4771.3581538174
field sqrsum 112240.02530898
field min 21.176732977013
field max 25.458498936973
attr interpolationmode  none
attr title  "Latency time of file print, stats"
attr unit  s
statistic UCACnet.owner[213] 	latency:stats
field count 202
field mean 23.493415870298
field stddev 0.652854614374
field sum 4745.6700058002
field sqrsum 111577.66907811
field min 21.596815072163
field max 25.615863877087
attr interpolationmode  none
attr title  "Latency time of file print, stats"
attr unit  s
statistic UCACnet.owner[214] 	latency:stats
field count 206
field mean 23.522295705276
field stddev 0.66312230779521
field sum 4845.5929152868
field sqrsum 114069.61431576
field min 21.304384155975
field max 25.250826642393
attr interpolationmode  none
attr title  "Latency time of file print, stats"
attr unit  s
statistic UCACnet.owner[215] 	latency:stats
field count 205
field mean 23.504337152291
field stddev 0.67807605932351
field sum 4818.3891162197
field sqrsum 113346.83889557
field min 22.140657122702
field max 25.489608572323
attr interpolationmode  none
attr title  "Latency time of file print, stats"
attr unit  s
statistic UCACnet.owner[216] 	latency:stats
field count 204
field mean 23.52643115544
field stddev 0.73470531119539
field sum 4799.3919557098
field sqrsum 113022.14218852
field min 19.435807577729
field max 25.153600309911
attr interpolationmode  none
attr title  "Latency time of file print, stats"
attr unit  s
statistic UCACnet.owner[217] 	latency:stats
field count 201
field mean 23.524311868735
field stddev 0.66691344517827
field sum 4728.3866856157
field sqrsum 111320.99773707
field min 21.665275026588
field max 25.127091861478
attr interpolationmode  none
attr title  "Latency time of file print, stats"
attr unit  s
statistic UCACnet.owner[218] 	latency:stats
field count 203
field mean 23.491799286557
field stddev 0.68219966754329
field sum 4768.835255171
field sqrsum 112122.53071518
field min 21.268116529766
field max 25.067353567217
attr interpolationmode  none
attr title  "Latency time of file print, stats"
attr unit  s
statistic UCACnet.owner[219] 	latency:stats
field count 203
field mean 23.47143066234
field stddev 0.65550716294706
field sum 4764.7004244549
field sqrsum 111921.13294683
field min 21.510269644491
field max 25.28675987643
attr interpolationmode  none
attr title  "Latency time of file print, stats"
attr unit  s
statistic UCACnet.owner[220] 	latency:stats
field count 213
field mean 23.503609662081
field stddev 0.65835757971874
field sum 5006.2688580233
field sqrsum 117757.2772594
field min 21.933051416473
field max 25.233805643585
attr interpolationmode  none
attr title  "Latency time of file print, stats"
attr unit  s
statistic UCACnet.owner[221] 	latency:stats
field count 204
field mean 23.525844206377
field stddev 0.65802160279185
field sum 4799.272218101
field sqrsum 112994.82797028
field min 21.447627977023
field max 25.117788904055
attr interpolationmode  none
attr title  "Latency time of file print, stats"
attr unit  s
statistic UCACnet.owner[222] 	latency:stats
field count 203
field mean 23.516583222255
field stddev 0.69953796595094
field sum 4773.8663941179
field sqrsum 112363.87572909
field min 20.934802586308
field max 25.521336266418
attr interpolationmode  none
attr title  "Latency time of file print, stats"
attr unit  s
statistic UCACnet.owner[223] 	latency:stats
field count 193
field mean 23.503182854624
field stddev 0.6877339252092
field sum 4536.1142909424
field sqrsum 106703.93539626
field min 21.255353995215
field max 25.193820791419
attr interpolationmode  none
attr title  "Latency time of file print, stats"
attr unit  s
statistic UCACnet.owner[224] 	latency:stats
field count 206
field mean 23.486870398723
field stddev 0.67636977233317
field sum 4838.295302137
field sqrsum 113730.19730617
field min 21.190205999507
field max 25.665376824616
attr interpolationmode  none
attr title  "Latency time of file print, stats"
attr unit  s
statistic UCACnet.owner[225] 	latency:stats
field count 205
field mean 23.493234912732
field stddev 0.81354621563697
field sum 4816.11315711
field sqrsum 113281.09668506
field min 15.930741033019
field max 25.503781937233
attr interpolationmode  none
attr title  "Latency time of file print, stats"
attr unit  s
statistic UCACnet.owner[226] 	latency:stats
field count 202
field mean 23.476475180221
field stddev 0.68322548702773
field sum 4742.2479864046
field sqrsum 111425.09336157
field min 21.255806173899
field max 25.424188388794
attr interpolationmode  none
attr title  "Latency time of file print, stats"
attr unit  s
statistic UCACnet.owner[227] 	latency:stats
field count 207
field mean 23.522229191556
field stddev 0.67836417644831
field sum 4869.1014426521
field sqrsum 114626.91674991
field min 21.937912863799
field max 25.535446706671
attr interpolationmode  none
attr title  "Latency time of file print, stats"
attr unit  s
statistic UCACnet.owner[228] 	latency:stats
field count 210
field mean 23.504552869169
field stddev 0.629723387702
field sum 4935.9561025256
field sqrsum 116100.32044462
field min 21.922432612031
field max 25.284070038005
attr interpolationmode  none
attr title  "Latency time of file print, stats"
attr unit  s
statistic UCACnet.owner[229] 	latency:stats
field count 202
field mean 23.512996619403
field stddev 0.65709984547833
field sum 4749.6253171195
field sqrsum 111764.71184645
field min 21.222891988059
field max 25.550827653264
attr interpolationmode  none
attr title  "Latency time of file print, stats"
attr unit  s
statistic UCACnet.owner[230] 	latency:stats
field count 210
field mean 23.512922022492
field stddev 0.72343737989991
field sum 4937.7136247233
field sqrsum 116209.45801083
field min 21.001294046498
field max 25.415965354273
attr interpolationmode  none
attr title  "Latency time of file print, stats"
attr unit  s
statistic UCACnet.owner[231] 	latency:stats
field count 206
field mean 23.531662533607
field stddev 0.66811575520617
field sum 4847.5224819231
field sqrsum 114161.77079447
field min 21.991549528701
field max 25.569375193867
attr interpolationmode  none
attr title  "Latency time of file print, stats"
attr unit  s
statistic UCACnet.owner[232] 	latency:stats
field count 199
field mean 23.460095141002
field stddev 0.70377149003408
field sum 4668.5589330593
field sqrsum 109622.90501436
field min 21.210053579303
field max 25.605286565744
attr interpolationmode  none
attr title  "Latency time of file print, stats"
attr unit  s
statistic UCACnet.owner[233] 	latency:stats
field count 200
field mean 23.531631008257
field stddev 0.6843293756416
field sum 4706.3262016514
field sqrsum 110840.72461393
field min 20.04590274594
field max 24.879541111268
attr interpolationmode  none
attr title  "Latency time of file print, stats"
attr unit  s
statistic UCACnet.owner[234] 	latency:stats
field count 206
field mean 23.513272179441
field stddev 0.69414236417983
field sum 4843.7340689649
field sqrsum 113990.81342087
field min 21.659710730375
field max 25.219113462776
attr interpolationmode  none
attr title  "Latency time of file print, stats"
attr unit  s
statistic UCACnet.owner[235] 	latency:stats
field count 201
field mean 23.503940494774
field stddev 0.68560300350779
field sum 4724.2920394495
field sqrsum 111133.48927084
field min 20.917709171488
field max 25.582149753509
attr interpolationmode  none
attr title  "Latency time of file print, stats"
attr unit  s
statistic UCACnet.owner[236] 	latency:stats
field count 203
field mean 23.468248060739
field stddev 0.66314505594916
field sum 4764.05435633
field sqrsum 111892.84120497
field min 20.961680144575
field max 24.980944395205
attr interpolationmode  none
attr title  "Latency time of file print, stats"
attr unit  s
statistic UCACnet.owner[237] 	latency:stats
field count 203
field mean 23.487643821271
field stddev 0.67799034180766
field sum 4767.9916957181
field sqrsum 112081.74421433
field min 21.686685854185
field max 25.032248375975
attr interpolationmode  none
attr title  "Latency time of file print, stats"
attr unit  s
statistic UCACnet.owner[238] 	latency:stats
field count 208
field mean 23.44260095619
field stddev 0.66123155228638
field sum 4876.0609988875
field sqrsum 114398.05825827
field min 21.325506727191
field max 25.199618252602
attr interpolationmode  none
attr title  "Latency time of file print, stats"
attr unit  s
statistic UCACnet.owner[239] 	latency:stats
field count 203
field mean 23.493020219617
field stddev 0.63616310022938
field sum 4769.0831045823
field sqrsum 112121.91590998
field min 21.440974012035
field max 24.933797169914
attr interpolationmode  none
attr title  "Latency time of file print, stats"
attr unit  s
statistic UCACnet.owner[240] 	latency:stats
field count 203
field mean 23.536454024586
field stddev 0.6944452759241
field sum 4777.900166991
field sqrsum 112552.24297118
field min 20.915015561069
field max 25.05457945381
attr interpolationmode  none
attr title  "Latency time of file print, stats"
attr unit  s
statistic UCACnet.owner[241] 	latency:stats
field count 202
field mean 23.490320197356
field stddev 0.66797144789523
field sum 4745.0446798659
field sqrsum 111552.3022377
field min 21.285727160628
field max 25.19230503309
attr interpolationmode  none
attr title  "Latency time of file print, stats"
attr unit  s
statistic UCACnet.owner[242] 	latency:stats
field count 196
field mean 23.554864980412
field stddev 0.62625711112854
field sum 4616.7535361608
field sqrsum 108823.48479611
field min 22.01732364392
field max 24.90861371075
attr interpolationmode  none
attr title  "Latency time of file print, stats"
attr unit  s
statistic UCACnet.owner[243] 	latency:stats
field count 212
field mean 23.498253643909
field stddev 0.67740810562847
field sum 4981.6297725087
field sqrsum 117156.42400193
field min 21.840986796265
field max 25.517904195758
attr interpolationmode  none
attr title  "Latency time of file print, stats"
attr unit  s
statistic UCACnet.owner[244] 	latency:stats
field count 197
field mean 23.524648646631
field stddev 0.70183976100612
field sum 4634.3557833862
field sqrsum 109118.13700147
field min 21.572751705276
field max 25.013870313084
attr interpolationmode  none
attr title  "Latency time of file print, stats"
attr unit  s
statistic UCACnet.owner[245] 	latency:stats
field count 201
field mean 23.503001924696
field stddev 0.73675430889738
field sum 4724.103386864
field sqrsum 111139.17237626
field min 19.565435089886
field max 25.429506602984
attr interpolationmode  none
attr title  "Latency time of file print, stats"
attr unit  s
statistic UCACnet.owner[246] 	latency:stats
field count 205
field mean 23.544863557521
field stddev 0.67622155852614
field sum 4826.6970292918
field sqrsum 113737.2072098
field min 21.288507084712
field max 25.190520326446
attr interpolationmode  none
attr title  "Latency time of file print, stats"
attr unit  s
statistic UCACnet.owner[247] 	latency:stats
field count 200
field mean 23.5106166053
field stddev 0.67292986869626
field sum 4702.12332106
field sqrsum 110639.93271931
field min 21.638833904117
field max 25.232228631899
attr interpolationmode  none
attr title  "Latency time of file print, stats"
attr unit  s
statistic UCACnet.owner[248] 	latency:stats
field count 202
field mean 23.502224192295
field stddev 0.61876246417288
field sum 4747.4492868437
field sqrsum 111652.57374535
field min 21.672226769995
field max 24.994560767104
attr interpolationmode  none
attr title  "Latency time of file print, stats"
attr unit  s
statistic UCACnet.owner[249] 	latency:stats
field count 206
field mean 23.48097276385
field stddev 0.67795095025915
field sum 4837.0803893531
field sqrsum 113673.5744646
field min 21.346475850774
field max 25.054633953669
attr interpolationmode  none
attr title  "Latency time of file print, stats"
attr unit  s
statistic UCACnet.owner[250] 	latency:stats
field count 202
field mean 23.470282293792
field stddev 0.64925393380393
field sum 4740.997023346
field sqrsum 111357.26615674
field min 22.102893501816
field max 25.504542896676
attr interpolationmode  none
attr title  "Latency time of file print, stats"
attr unit  s
statistic UCACnet.owner[251] 	latency:stats
field count 203
field mean 23.51472427953
field stddev 0.62583590257731
field sum 4773.4890287446
field sqrsum 112326.39581883
field min 21.989783823914
field max 24.844687896455
attr interpolationmode  none
attr title  "Latency time of file print, stats"
attr unit  s
statistic UCACnet.owner[252] 	latency:stats
field count 206
field mean 23.430114725001
field stddev 1.1466811803588
field sum 4826.6036333502
field sqrsum 113357.42679603
field min 10.37220969316
field max 25.447962358304
attr interpolationmode  none
attr title  "Latency time of file print, stats"
attr unit  s
statistic UCACnet.owner[253] 	latency:stats
field count 205
field mean 23.462039617834
field stddev 0.65042957512774
field sum 4809.7181216559
field sqrsum 112932.10108187
field min 21.709492417502
field max 24.973958426006
attr interpolationmode  none
attr title  "Latency time of file print, stats"
attr unit  s
statistic UCACnet.owner[254] 	latency:stats
field count 203
field mean 23.486899558981
field stddev 0.72143984908531
field sum 4767.8406104732
field sqrsum 112086.9295735
field min 21.294107849683
[...]
field count 201
field mean 23.541387903981
field stddev 0.69315318850866
field sum 4731.8189687002
field sqrsum 111489.67810214
field min 21.255384158769
field max 25.453876276291
attr interpolationmode  none
attr title  "Latency time of file print, stats"
attr unit  s
statistic UCACnet.owner[337] 	latency:stats
field count 209
field mean 23.587454094674
field stddev 0.67900052067438
field sum 4929.777905787
field sqrsum 116376.80672476
field min 21.960295169778
field max 25.594346585344
attr interpolationmode  none
attr title  "Latency time of file print, stats"
attr unit  s
statistic UCACnet.owner[338] 	latency:stats
field count 201
field mean 23.456834439876
field stddev 0.8012449741081
field sum 4714.8237224151
field sqrsum 110723.2381716
field min 17.725057754449
field max 24.973520428355
attr interpolationmode  none
attr title  "Latency time of file print, stats"
attr unit  s
statistic UCACnet.owner[339] 	latency:stats
field count 198
field mean 23.537040045021
field stddev 0.64761514322128
field sum 4660.3339289143
field sqrsum 109773.08916665
field min 21.644107084569
field max 25.183707692743
attr interpolationmode  none
attr title  "Latency time of file print, stats"
attr unit  s
statistic UCACnet.owner[340] 	latency:stats
field count 207
field mean 23.482636732733
field stddev 0.66573409698486
field sum 4860.9058036757
field sqrsum 114238.18476866
field min 21.302042941891
field max 25.055540887003
attr interpolationmode  none
attr title  "Latency time of file print, stats"
attr unit  s
statistic UCACnet.owner[341] 	latency:stats
field count 206
field mean 23.536615666418
field stddev 0.6534239683578
field sum 4848.5428272821
field sqrsum 114205.8164588
field min 22.16596501414
field max 25.502550374975
attr interpolationmode  none
attr title  "Latency time of file print, stats"
attr unit  s
statistic UCACnet.owner[342] 	latency:stats
field count 208
field mean 23.434015849004
field stddev 0.99876260993018
field sum 4874.2752965928
field sqrsum 114430.33259022
field min 12.945306977755
field max 25.240033599606
attr interpolationmode  none
attr title  "Latency time of file print, stats"
attr unit  s
statistic UCACnet.owner[343] 	latency:stats
field count 201
field mean 23.504608915517
field stddev 0.67895484050068
field sum 4724.4263920188
field sqrsum 111137.99062964
field min 21.895091073426
field max 25.41423632379
attr interpolationmode  none
attr title  "Latency time of file print, stats"
attr unit  s
statistic UCACnet.owner[344] 	latency:stats
field count 202
field mean 23.398639707542
field stddev 0.7416907659318
field sum 4726.5252209236
field sqrsum 110704.83185665
field min 18.612615425632
field max 25.152917997236
attr interpolationmode  none
attr title  "Latency time of file print, stats"
attr unit  s
statistic UCACnet.owner[345] 	latency:stats
field count 203
field mean 23.439904078747
field stddev 0.75502464366783
field sum 4758.3005279857
field sqrsum 111649.26052077
field min 18.02571243205
field max 25.109252880691
attr interpolationmode  none
attr title  "Latency time of file print, stats"
attr unit  s
statistic UCACnet.owner[346] 	latency:stats
field count 206
field mean 23.412751609836
field stddev 1.1452708759682
field sum 4823.0268316263
field sqrsum 113189.21651921
field min 10.275052802431
field max 25.409889296845
attr interpolationmode  none
attr title  "Latency time of file print, stats"
attr unit  s
statistic UCACnet.owner[347] 	latency:stats
field count 203
field mean 23.476761903537
field stddev 0.77490818085052
field sum 4765.7826664181
field sqrsum 112006.44244663
field min 17.674817994613
field max 25.46924453857
attr interpolationmode  none
attr title  "Latency time of file print, stats"
attr unit  s
statistic UCACnet.owner[348] 	latency:stats
field count 199
field mean 23.520761863557
field stddev 0.70177188552238
field sum 4680.6316108478
field sqrsum 110189.53327809
field min 21.990222123703
field max 25.513932314656
attr interpolationmode  none
attr title  "Latency time of file print, stats"
attr unit  s
statistic UCACnet.owner[349] 	latency:stats
field count 208
field mean 23.534671443346
field stddev 0.66814916164315
field sum 4895.211660216
field sqrsum 115299.60769238
field min 20.950992497492
field max 25.5346881774
attr interpolationmode  none
attr title  "Latency time of file print, stats"
attr unit  s
statistic UCACnet.owner[350] 	latency:stats
field count 201
field mean 23.564183832985
field stddev 0.73017219058258
field sum 4736.4009504301
field sqrsum 111716.05298824
field min 19.444950455207
field max 25.057771019565
attr interpolationmode  none
attr title  "Latency time of file print, stats"
attr unit  s
statistic UCACnet.owner[351] 	latency:stats
field count 209
field mean 23.507578015187
field stddev 0.69174574661996
field sum 4913.0838051741
field sqrsum 115594.2313783
field min 21.85725202797
field max 25.617680524294
attr interpolationmode  none
attr title  "Latency time of file print, stats"
attr unit  s
statistic UCACnet.owner[352] 	latency:stats
field count 201
field mean 23.529347161047
field stddev 0.66975076829771
field sum 4729.3987793703
field sqrsum 111369.37896116
field min 21.959149200762
field max 25.003460855969
attr interpolationmode  none
attr title  "Latency time of file print, stats"
attr unit  s
statistic UCACnet.owner[353] 	latency:stats
field count 207
field mean 23.433484519758
field stddev 0.68193332440607
field sum 4850.73129559
field sqrsum 113765.33353486
field min 21.121309790948
field max 25.573536972325
attr interpolationmode  none
attr title  "Latency time of file print, stats"
attr unit  s
statistic UCACnet.owner[354] 	latency:stats
field count 211
field mean 23.551663607694
field stddev 0.67144802979184
field sum 4969.4010212233
field sqrsum 117132.33809949
field min 21.41437193678
field max 25.491128707859
attr interpolationmode  none
attr title  "Latency time of file print, stats"
attr unit  s
statistic UCACnet.owner[355] 	latency:stats
field count 205
field mean 23.54973800931
field stddev 0.6691629377676
field sum 4827.6962919086
field sqrsum 113782.32978657
field min 21.804608595401
field max 25.509331448306
attr interpolationmode  none
attr title  "Latency time of file print, stats"
attr unit  s
statistic UCACnet.owner[356] 	latency:stats
field count 203
field mean 23.522464862075
field stddev 0.69217124705834
field sum 4775.0603670013
field sqrsum 112417.9681062
field min 21.559788519403
field max 25.328560059702
attr interpolationmode  none
attr title  "Latency time of file print, stats"
attr unit  s
statistic UCACnet.owner[357] 	latency:stats
field count 201
field mean 23.454480722075
field stddev 0.63011303271047
field sum 4714.3506251372
field sqrsum 110652.05434118
field min 21.69964760675
field max 24.829726390384
attr interpolationmode  none
attr title  "Latency time of file print, stats"
attr unit  s
statistic UCACnet.owner[358] 	latency:stats
field count 202
field mean 23.436547942579
field stddev 1.0850628105217
field sum 4734.182684401
field sqrsum 111189.54907375
field min 11.196439460188
field max 25.318373089289
attr interpolationmode  none
attr title  "Latency time of file print, stats"
attr unit  s
statistic UCACnet.owner[359] 	latency:stats
field count 202
field mean 23.549515931542
field stddev 0.66597496982353
field sum 4757.0022181714
field sqrsum 112114.24757795
field min 21.09498050574
field max 24.911599101839
attr interpolationmode  none
attr title  "Latency time of file print, stats"
attr unit  s
statistic UCACnet.owner[360] 	latency:stats
field count 207
field mean 23.462905453051
field stddev 0.76329392112563
field sum 4856.8214287815
field sqrsum 114075.16121352
field min 17.586434091122
field max 25.05967260365
attr interpolationmode  none
attr title  "Latency time of file print, stats"
attr unit  s
statistic UCACnet.owner[361] 	latency:stats
field count 201
field mean 23.513201380469
field stddev 0.6477327019437
field sum 4726.1534774743
field sqrsum 111210.91000149
field min 21.292183737363
field max 24.772803667057
attr interpolationmode  none
attr title  "Latency time of file print, stats"
attr unit  s
statistic UCACnet.owner[362] 	latency:stats
field count 199
field mean 23.515987163604
field stddev 0.71727458751549
field sum 4679.6814455571
field sqrsum 110149.19640459
field min 21.576306073636
field max 25.639409341661
attr interpolationmode  none
attr title  "Latency time of file print, stats"
attr unit  s
statistic UCACnet.owner[363] 	latency:stats
field count 205
field mean 23.409866146503
field stddev 1.00874767506
field sum 4799.0225600331
field sqrsum 112552.0604263
field min 12.661178448686
field max 25.497288529699
attr interpolationmode  none
attr title  "Latency time of file print, stats"
attr unit  s
statistic UCACnet.owner[364] 	latency:stats
field count 205
field mean 23.535613110488
field stddev 0.67928929320752
field sum 4824.8006876501
field sqrsum 113648.7748443
field min 21.868160759394
field max 25.278042534564
attr interpolationmode  none
attr title  "Latency time of file print, stats"
attr unit  s
statistic UCACnet.owner[365] 	latency:stats
field count 206
field mean 23.503108821303
field stddev 0.67711013103702
field sum 4841.6404171883
field sqrsum 113887.58961535
field min 21.007709021797
field max 24.727766441046
attr interpolationmode  none
attr title  "Latency time of file print, stats"
attr unit  s
statistic UCACnet.owner[366] 	latency:stats
field count 201
field mean 23.486521003945
field stddev 0.72079823939076
field sum 4720.790721793
field sqrsum 110978.860463
field min 19.713326803217
field max 25.069920967075
attr interpolationmode  none
attr title  "Latency time of file print, stats"
attr unit  s
statistic UCACnet.owner[367] 	latency:stats
field count 193
field mean 23.546115366899
field stddev 0.69214036710367
field sum 4544.4002658114
field sqrsum 107094.95212341
field min 21.363922251491
field max 25.38377233044
attr interpolationmode  none
attr title  "Latency time of file print, stats"
attr unit  s
statistic UCACnet.owner[368] 	latency:stats
field count 207
field mean 23.489566070856
field stddev 0.68421824848316
field sum 4862.3401766671
field sqrsum 114310.70068878
field min 21.576193507481
field max 25.500959040084
attr interpolationmode  none
attr title  "Latency time of file print, stats"
attr unit  s
statistic UCACnet.owner[369] 	latency:stats
field count 197
field mean 23.420715718694
field stddev 0.70211295910868
field sum 4613.8809965827
field sqrsum 108157.01585189
field min 20.568329456942
field max 25.658936859365
attr interpolationmode  none
attr title  "Latency time of file print, stats"
attr unit  s
statistic UCACnet.owner[370] 	latency:stats
field count 197
field mean 23.531342022482
field stddev 0.66125926215049
field sum 4635.674378429
field sqrsum 109169.34301078
field min 22.212340287868
field max 25.223369039256
attr interpolationmode  none
attr title  "Latency time of file print, stats"
attr unit  s
statistic UCACnet.owner[371] 	latency:stats
field count 196
field mean 23.520876649617
field stddev 0.62330193116166
field sum 4610.091823325
field sqrsum 108509.15965283
field min 21.618165841884
field max 25.577688284046
attr interpolationmode  none
attr title  "Latency time of file print, stats"
attr unit  s
statistic UCACnet.owner[372] 	latency:stats
field count 207
field mean 23.506370813712
field stddev 0.64209276214709
field sum 4865.8187584383
field sqrsum 114462.6703699
field min 21.556508209221
field max 25.297153761679
attr interpolationmode  none
attr title  "Latency time of file print, stats"
attr unit  s
statistic UCACnet.owner[373] 	latency:stats
field count 207
field mean 23.55444820297
field stddev 0.67843592963672
field sum 4875.7707780147
field sqrsum 114940.90695429
field min 20.935755384015
field max 25.569895320203
attr interpolationmode  none
attr title  "Latency time of file print, stats"
attr unit  s
statistic UCACnet.owner[374] 	latency:stats
field count 202
field mean 23.554458140147
field stddev 0.69490727717601
field sum 4758.0005443098
field sqrsum 112169.18677264
field min 21.361989352146
field max 25.468695476866
attr interpolationmode  none
attr title  "Latency time of file print, stats"
attr unit  s
statistic UCACnet.owner[375] 	latency:stats
field count 210
field mean 23.499015642952
field stddev 0.74452661151213
field sum 4934.79328502
field sqrsum 116078.63745335
field min 21.267267777583
field max 25.527644901496
attr interpolationmode  none
attr title  "Latency time of file print, stats"
attr unit  s
statistic UCACnet.owner[376] 	latency:stats
field count 203
field mean 23.487613514755
field stddev 0.69557606408626
field sum 4767.9855434953
field sqrsum 112086.33455386
field min 21.730685237152
field max 25.488340169663
attr interpolationmode  none
attr title  "Latency time of file print, stats"
attr unit  s
statistic UCACnet.owner[377] 	latency:stats
field count 205
field mean 23.511923049938
field stddev 0.65632292133561
field sum 4819.9442252373
field sqrsum 113414.03272329
field min 21.596549805072
field max 24.986103295319
attr interpolationmode  none
attr title  "Latency time of file print, stats"
attr unit  s
statistic UCACnet.owner[378] 	latency:stats
field count 202
field mean 23.518621801549
field stddev 0.64983836894317
field sum 4750.7616039129
field sqrsum 111816.2457028
field min 21.491142547609
field max 24.864090112194
attr interpolationmode  none
attr title  "Latency time of file print, stats"
attr unit  s
statistic UCACnet.owner[379] 	latency:stats
field count 202
field mean 23.595547122026
field stddev 0.63248937306192
field sum 4766.3005186492
field sqrsum 112543.87708974
field min 22.010577695051
field max 25.54263164963
attr interpolationmode  none
attr title  "Latency time of file print, stats"
attr unit  s
statistic UCACnet.owner[380] 	latency:stats
field count 193
field mean 23.463478088039
field stddev 0.63697648820906
field sum 4528.4512709915
field sqrsum 106331.11906659
field min 21.831496961194
field max 25.054163573615
attr interpolationmode  none
attr title  "Latency time of file print, stats"
attr unit  s
statistic UCACnet.owner[381] 	latency:stats
field count 209
field mean 23.508612209449
field stddev 0.75281063270008
field sum 4913.2999517748
field sqrsum 115622.74179551
field min 19.056478778162
field max 25.508427258089
attr interpolationmode  none
attr title  "Latency time of file print, stats"
attr unit  s
statistic UCACnet.owner[382] 	latency:stats
field count 206
field mean 23.484468609675
field stddev 0.72529118374379
field sum 4837.8005335931
field sqrsum 113721.01446779
field min 18.936761772455
field max 25.004447268562
attr interpolationmode  none
attr title  "Latency time of file print, stats"
attr unit  s
statistic UCACnet.owner[383] 	latency:stats
field count 198
field mean 23.487212251549
field stddev 0.71524334700943
field sum 4650.4680258066
field sqrsum 109327.30948111
field min 19.360021375512
field max 25.580207620778
attr interpolationmode  none
attr title  "Latency time of file print, stats"
attr unit  s
statistic UCACnet.owner[384] 	latency:stats
field count 190
field mean 23.449820297861
field stddev 0.79624716855479
field sum 4455.4658565935
field sqrsum 104599.70148597
field min 18.08168702181
field max 25.071129906003
attr interpolationmode  none
attr title  "Latency time of file print, stats"
attr unit  s
statistic UCACnet.owner[385] 	latency:stats
field count 203
field mean 23.481921776213
field stddev 0.73777548186509
field sum 4766.8301205712
field sqrsum 112044.2831694
field min 19.245414818652
field max 25.469681920672
attr interpolationmode  none
attr title  "Latency time of file print, stats"
attr unit  s
statistic UCACnet.owner[386] 	latency:stats
field count 196
field mean 23.515200177116
field stddev 0.69628414856579
field sum 4608.9792347147
field sqrsum 108475.60758152
field min 21.634711716261
field max 25.446613916805
attr interpolationmode  none
attr title  "Latency time of file print, stats"
attr unit  s
statistic UCACnet.owner[387] 	latency:stats
field count 210
field mean 23.521583272377
field stddev 0.67697831243911
field sum 4939.5324871992
field sqrsum 116281.40934809
field min 21.558121339954
field max 25.541263019056
attr interpolationmode  none
attr title  "Latency time of file print, stats"
attr unit  s
statistic UCACnet.owner[388] 	latency:stats
field count 203
field mean 23.507528723421
field stddev 0.67653402659038
field sum 4772.0283308544
field sqrsum 112271.04811094
field min 21.518854685695
field max 25.578755394961
attr interpolationmode  none
attr title  "Latency time of file print, stats"
attr unit  s
statistic UCACnet.owner[389] 	latency:stats
field count 207
field mean 23.492511657507
field stddev 0.66146826846373
field sum 4862.949913104
field sqrsum 114333.04081913
field min 21.335999417317
field max 25.51701034956
attr interpolationmode  none
attr title  "Latency time of file print, stats"
attr unit  s
statistic UCACnet.owner[390] 	latency:stats
field count 210
field mean 23.506254627057
field stddev 0.66195605247858
field sum 4936.3134716821
field sqrsum 116125.82221975
field min 21.127867509338
field max 25.121522718882
attr interpolationmode  none
attr title  "Latency time of file print, stats"
attr unit  s
statistic UCACnet.owner[391] 	latency:stats
field count 202
field mean 23.53122491586
field stddev 0.66746576624255
field sum 4753.3074330038
field sqrsum 111940.69392061
field min 21.871528595786
field max 25.417784060896
attr interpolationmode  none
attr title  "Latency time of file print, stats"
attr unit  s
statistic UCACnet.owner[392] 	latency:stats
field count 204
field mean 23.475087321107
field stddev 0.74524426152761
field sum 4788.9178135059
field sqrsum 112533.00781455
field min 19.543879867241
field max 25.322771294715
attr interpolationmode  none
attr title  "Latency time of file print, stats"
attr unit  s
statistic UCACnet.owner[393] 	latency:stats
field count 201
field mean 23.594800228937
field stddev 0.67147862061277
field sum 4742.5548460163
field sqrsum 111989.81087412
field min 21.885497210537
field max 25.524715829144
attr interpolationmode  none
attr title  "Latency time of file print, stats"
attr unit  s
statistic UCACnet.owner[394] 	latency:stats
field count 199
field mean 23.450062303761
field stddev 0.71002813756896
field sum 4666.5623984484
field sqrsum 109530.99869932
field min 20.230930987408
field max 25.589841140458
attr interpolationmode  none
attr title  "Latency time of file print, stats"
attr unit  s
statistic UCACnet.owner[395] 	latency:stats
field count 203
field mean 23.413269234612
field stddev 0.92775389767866
field sum 4752.8936546262
field sqrsum 111454.64569276
field min 14.562464606688
field max 25.090756646323
attr interpolationmode  none
attr title  "Latency time of file print, stats"
attr unit  s
statistic UCACnet.owner[396] 	latency:stats
field count 208
field mean 23.492223739428
field stddev 0.95886691466131
field sum 4886.382537801
field sqrsum 114982.31298678
field min 13.146197877486
field max 25.487161938303
attr interpolationmode  none
attr title  "Latency time of file print, stats"
attr unit  s
statistic UCACnet.owner[397] 	latency:stats
field count 199
field mean 23.442529883839
field stddev 1.0071345114433
field sum 4665.0634468839
field sqrsum 109561.72460856
field min 13.091283885481
field max 25.289547879294
attr interpolationmode  none
attr title  "Latency time of file print, stats"
attr unit  s
statistic UCACnet.owner[398] 	latency:stats
field count 197
field mean 23.501353250096
field stddev 0.67692688124788
field sum 4629.7665902689
field sqrsum 108895.5931839
field min 21.120093677439
field max 25.339438031627
attr interpolationmode  none
attr title  "Latency time of file print, stats"
attr unit  s
statistic UCACnet.owner[399] 	latency:stats
field count 200
field mean 23.534985923402
field stddev 0.62463215750995
field sum 4706.9971846803
field sqrsum 110856.75538405
field min 21.70027514666
field max 25.522658825755
attr interpolationmode  none
attr title  "Latency time of file print, stats"
attr unit  s
