version 2
run Owner-700-0-20110908-17:09:50-5877
attr configname Owner-700
attr datetime 20110908-17:09:50
attr experiment Owner-700
attr inifile nocrypto.ini
attr iterationvars ""
attr iterationvars2 $repetition=0
attr measurement ""
attr network UCACnet
attr processid 5877
attr repetition 0
attr replication #0
attr resultdir results
attr runnumber 0
attr seedset 0

statistic UCACnet.owner[0] 	latency:stats
field count 199
field mean 48.01425441176
field stddev 0.50387885498031
field sum 9554.8366279403
field sqrsum 458818.62770902
field min 46.686234942679
field max 49.794321359266
attr interpolationmode  none
attr title  "Latency time of file print, stats"
attr unit  s
statistic UCACnet.owner[1] 	latency:stats
field count 197
field mean 48.0273665351
field stddev 0.55115533971052
field sum 9461.3912074147
field sqrsum 454465.24280334
field min 46.419567176145
field max 50.229462520084
attr interpolationmode  none
attr title  "Latency time of file print, stats"
attr unit  s
statistic UCACnet.owner[2] 	latency:stats
field count 197
field mean 48.035456595558
field stddev 0.53467743205505
field sum 9462.9849493249
field sqrsum 454614.83526916
field min 46.525149574671
field max 50.65175882445
attr interpolationmode  none
attr title  "Latency time of file print, stats"
attr unit  s
statistic UCACnet.owner[3] 	latency:stats
field count 198
field mean 47.989677700884
field stddev 0.50111631499457
field sum 9501.9561847751
field sqrsum 456045.28499483
field min 46.390685600324
field max 49.633024284177
attr interpolationmode  none
attr title  "Latency time of file print, stats"
attr unit  s
statistic UCACnet.owner[4] 	latency:stats
field count 197
field mean 48.043865054936
field stddev 0.52392321691421
field sum 9464.6414158224
field sqrsum 454771.75610043
field min 46.386614194366
field max 50.266835090216
attr interpolationmode  none
attr title  "Latency time of file print, stats"
attr unit  s
statistic UCACnet.owner[5] 	latency:stats
field count 199
field mean 48.035427687932
field stddev 0.4927602329671
field sum 9559.0501098984
field sqrsum 459221.13722348
field min 46.7303627229
field max 49.55463164963
attr interpolationmode  none
attr title  "Latency time of file print, stats"
attr unit  s
statistic UCACnet.owner[6] 	latency:stats
field count 197
field mean 48.013331530747
field stddev 0.5467255718961
field sum 9458.6263115572
field sqrsum 454198.74705704
field min 46.625454994198
field max 49.813055005104
attr interpolationmode  none
attr title  "Latency time of file print, stats"
attr unit  s
statistic UCACnet.owner[7] 	latency:stats
field count 197
field mean 48.029342946067
field stddev 0.48987552844735
field sum 9461.7805603752
field sqrsum 454490.13910923
field min 46.630391792274
field max 49.613425862896
attr interpolationmode  none
attr title  "Latency time of file print, stats"
attr unit  s
statistic UCACnet.owner[8] 	latency:stats
field count 199
field mean 48.007222880577
field stddev 0.52692191279955
field sum 9553.4373532349
field sqrsum 458688.97033941
field min 46.231125653461
field max 49.620029121123
attr interpolationmode  none
attr title  "Latency time of file print, stats"
attr unit  s
statistic UCACnet.owner[9] 	latency:stats
field count 202
field mean 48.025214850071
field stddev 0.52886813009408
field sum 9701.0933997143
field sqrsum 465953.31480319
field min 46.416654417399
field max 50.37900214099
attr interpolationmode  none
attr title  "Latency time of file print, stats"
attr unit  s
statistic UCACnet.owner[10] 	latency:stats
field count 200
field mean 48.034615577358
field stddev 0.53975504907598
field sum 9606.9231154716
field sqrsum 461522.8345
field min 46.62334407863
field max 50.437473398285
attr interpolationmode  none
attr title  "Latency time of file print, stats"
attr unit  s
statistic UCACnet.owner[11] 	latency:stats
field count 196
field mean 48.020838352263
field stddev 0.5259915965712
field sum 9412.0843170436
field sqrsum 452030.12964275
field min 46.383857271568
field max 49.650778385558
attr interpolationmode  none
attr title  "Latency time of file print, stats"
attr unit  s
statistic UCACnet.owner[12] 	latency:stats
field count 200
field mean 47.993488061503
field stddev 0.49959986669813
field sum 9598.6976123006
field sqrsum 460724.64966726
field min 46.434999690483
field max 49.114824481095
attr interpolationmode  none
attr title  "Latency time of file print, stats"
attr unit  s
statistic UCACnet.owner[13] 	latency:stats
field count 197
field mean 48.034035158038
field stddev 0.52887044132121
field sum 9462.7049261334
field sqrsum 454586.72308499
field min 45.733475013548
field max 49.513841140458
attr interpolationmode  none
attr title  "Latency time of file print, stats"
attr unit  s
statistic UCACnet.owner[14] 	latency:stats
field count 203
field mean 48.040340127081
field stddev 0.47760832150374
field sum 9752.1890457975
field sqrsum 468544.55690488
field min 46.504570324787
field max 49.675699208663
attr interpolationmode  none
attr title  "Latency time of file print, stats"
attr unit  s
statistic UCACnet.owner[15] 	latency:stats
field count 202
field mean 47.935052605691
field stddev 1.3598024850344
field sum 9682.8806263496
field sqrsum 464521.05382116
field min 30.373219713993
field max 49.449539242713
attr interpolationmode  none
attr title  "Latency time of file print, stats"
attr unit  s
statistic UCACnet.owner[16] 	latency:stats
field count 195
field mean 48.055739524206
field stddev 0.45423668825147
field sum 9370.8692072202
field sqrsum 450364.07794556
field min 46.557943605641
field max 49.373233032035
attr interpolationmode  none
attr title  "Latency time of file print, stats"
attr unit  s
statistic UCACnet.owner[17] 	latency:stats
field count 196
field mean 48.011554345093
field stddev 0.57547154308308
field sum 9410.2646516383
field sqrsum 451866.01038574
field min 45.051504996506
field max 49.556601915249
attr interpolationmode  none
attr title  "Latency time of file print, stats"
attr unit  s
statistic UCACnet.owner[18] 	latency:stats
field count 191
field mean 48.02321575258
field stddev 0.49431973111783
field sum 9172.4342087427
field sqrsum 440536.21386215
field min 46.744705769672
field max 49.496398226
attr interpolationmode  none
attr title  "Latency time of file print, stats"
attr unit  s
statistic UCACnet.owner[19] 	latency:stats
field count 197
field mean 48.029885536165
field stddev 0.47729028122096
field sum 9461.8874506245
field sqrsum 454498.02118803
field min 46.628764866737
field max 49.188602922415
attr interpolationmode  none
attr title  "Latency time of file print, stats"
attr unit  s
statistic UCACnet.owner[20] 	latency:stats
field count 197
field mean 48.03937083578
field stddev 0.5012816606326
field sum 9463.7560546487
field sqrsum 454682.13813608
field min 46.353639556471
field max 50.336105228693
attr interpolationmode  none
attr title  "Latency time of file print, stats"
attr unit  s
statistic UCACnet.owner[21] 	latency:stats
field count 197
field mean 48.011188742396
field stddev 0.51595975975477
field sum 9458.204182252
field sqrsum 454151.80419507
field min 46.6608694692
field max 50.182954401674
attr interpolationmode  none
attr title  "Latency time of file print, stats"
attr unit  s
statistic UCACnet.owner[22] 	latency:stats
field count 201
field mean 47.984376766325
field stddev 0.51202580760236
field sum 9644.8597300314
field sqrsum 462855.01722971
field min 46.48631316014
field max 49.654325271795
attr interpolationmode  none
attr title  "Latency time of file print, stats"
attr unit  s
statistic UCACnet.owner[23] 	latency:stats
field count 199
field mean 47.998757523792
field stddev 0.50004016874944
field sum 9551.7527472346
field sqrsum 458521.77199546
field min 46.200844299087
field max 49.608917997236
attr interpolationmode  none
attr title  "Latency time of file print, stats"
attr unit  s
statistic UCACnet.owner[24] 	latency:stats
field count 197
field mean 48.057563024406
field stddev 0.52719309031454
field sum 9467.3399158079
field sqrsum 455031.75945809
field min 46.464596887564
field max 49.930737875921
attr interpolationmode  none
attr title  "Latency time of file print, stats"
attr unit  s
statistic UCACnet.owner[25] 	latency:stats
field count 202
field mean 48.047875761328
field stddev 0.46758041545499
field sum 9705.6709037883
field sqrsum 466380.81468598
field min 46.66094196758
field max 49.46317544258
attr interpolationmode  none
attr title  "Latency time of file print, stats"
attr unit  s
statistic UCACnet.owner[26] 	latency:stats
field count 200
field mean 48.018340032105
field stddev 0.46016261862336
field sum 9603.6680064211
field sqrsum 461194.33406526
field min 46.748941584969
field max 49.191598307907
attr interpolationmode  none
attr title  "Latency time of file print, stats"
attr unit  s
statistic UCACnet.owner[27] 	latency:stats
field count 200
field mean 48.072912355747
field stddev 0.53436151297825
field sum 9614.5824711495
field sqrsum 462257.80337576
field min 46.219700773311
field max 49.755373762174
attr interpolationmode  none
attr title  "Latency time of file print, stats"
attr unit  s
statistic UCACnet.owner[28] 	latency:stats
field count 197
field mean 47.962846784818
field stddev 1.2351615986469
field sum 9448.6808166091
field sqrsum 453484.65266392
field min 32.388212850273
field max 49.424810818841
attr interpolationmode  none
attr title  "Latency time of file print, stats"
attr unit  s
statistic UCACnet.owner[29] 	latency:stats
field count 196
field mean 48.023059627546
field stddev 0.4827639834537
field sum 9412.5196869989
field sqrsum 452063.44108162
field min 46.697286442497
field max 49.266831465701
attr interpolationmode  none
attr title  "Latency time of file print, stats"
attr unit  s
statistic UCACnet.owner[30] 	latency:stats
field count 197
field mean 47.931818190616
field stddev 1.1113741282967
field sum 9442.5681835513
field sqrsum 452841.55130727
field min 34.401456143681
field max 49.170505078595
attr interpolationmode  none
attr title  "Latency time of file print, stats"
attr unit  s
statistic UCACnet.owner[31] 	latency:stats
field count 198
field mean 48.052628729003
field stddev 0.53218374809729
field sum 9514.4204883427
field sqrsum 457248.70954768
field min 46.343644853067
field max 50.466941321843
attr interpolationmode  none
attr title  "Latency time of file print, stats"
attr unit  s
statistic UCACnet.owner[32] 	latency:stats
field count 196
field mean 47.855153929248
field stddev 1.8990204358194
field sum 9379.6101701326
field sqrsum 449565.91281809
field min 22.476810520933
field max 49.324341552465
attr interpolationmode  none
attr title  "Latency time of file print, stats"
attr unit  s
statistic UCACnet.owner[33] 	latency:stats
field count 199
field mean 48.010559532867
field stddev 0.5030604494007
field sum 9554.1013470405
field sqrsum 458747.85932865
field min 46.288858261562
field max 49.657063160537
attr interpolationmode  none
attr title  "Latency time of file print, stats"
attr unit  s
statistic UCACnet.owner[34] 	latency:stats
field count 198
field mean 48.045337937874
field stddev 0.50482616409942
field sum 9512.976911699
field sqrsum 457104.39586059
field min 46.535840588792
field max 49.840189770537
attr interpolationmode  none
attr title  "Latency time of file print, stats"
attr unit  s
statistic UCACnet.owner[35] 	latency:stats
field count 202
field mean 48.052163661075
field stddev 0.49410021167749
field sum 9706.5370595372
field sqrsum 466469.17850603
field min 46.63637049871
field max 49.36145513209
attr interpolationmode  none
attr title  "Latency time of file print, stats"
attr unit  s
statistic UCACnet.owner[36] 	latency:stats
field count 198
field mean 48.021148164714
field stddev 0.54250112851978
field sum 9508.1873366135
field sqrsum 456652.05144184
field min 46.383122507355
field max 50.31122381855
attr interpolationmode  none
attr title  "Latency time of file print, stats"
attr unit  s
statistic UCACnet.owner[37] 	latency:stats
field count 198
field mean 47.954588227776
field stddev 0.84186728506323
field sum 9495.0084690996
field sqrsum 455468.84323847
field min 39.104757868274
field max 49.211209859887
attr interpolationmode  none
attr title  "Latency time of file print, stats"
attr unit  s
statistic UCACnet.owner[38] 	latency:stats
field count 198
field mean 48.065902185288
field stddev 0.49220268072067
field sum 9517.0486326869
field sqrsum 457493.2545767
field min 46.153348942938
field max 49.539711092969
attr interpolationmode  none
attr title  "Latency time of file print, stats"
attr unit  s
statistic UCACnet.owner[39] 	latency:stats
field count 196
field mean 48.002579111075
field stddev 0.51944913675475
field sum 9408.5055057708
field sqrsum 451685.14620186
field min 46.213709171488
field max 49.542480130676
attr interpolationmode  none
attr title  "Latency time of file print, stats"
attr unit  s
statistic UCACnet.owner[40] 	latency:stats
field count 200
field mean 47.949285472468
field stddev 0.50772043247625
field sum 9589.8570944936
field sqrsum 459878.09369152
field min 45.570847713505
field max 49.006604593382
attr interpolationmode  none
attr title  "Latency time of file print, stats"
attr unit  s
statistic UCACnet.owner[41] 	latency:stats
field count 201
field mean 48.004873244162
field stddev 0.48064864738938
field sum 9648.9795220765
field sqrsum 463244.24351724
field min 46.510006283138
field max 49.317851535685
attr interpolationmode  none
attr title  "Latency time of file print, stats"
attr unit  s
statistic UCACnet.owner[42] 	latency:stats
field count 200
field mean 48.05046875756
field stddev 0.53669284920151
field sum 9610.093751512
field sqrsum 461826.82936791
field min 46.611543022878
field max 50.202670834308
attr interpolationmode  none
attr title  "Latency time of file print, stats"
attr unit  s
statistic UCACnet.owner[43] 	latency:stats
field count 203
field mean 48.029025981117
field stddev 0.51597189276617
field sum 9749.8922741668
field sqrsum 468331.60720187
field min 46.863783091866
field max 50.189045655998
attr interpolationmode  none
attr title  "Latency time of file print, stats"
attr unit  s
statistic UCACnet.owner[44] 	latency:stats
field count 197
field mean 47.98365436177
field stddev 0.48789546849241
field sum 9452.7799092686
field sqrsum 453625.58015391
field min 46.64075726629
field max 49.245867311142
attr interpolationmode  none
attr title  "Latency time of file print, stats"
attr unit  s
statistic UCACnet.owner[45] 	latency:stats
field count 201
field mean 48.043506907159
field stddev 0.51313317192965
field sum 9656.7448883391
field sqrsum 463996.55087402
field min 46.507353106136
field max 49.639422193025
attr interpolationmode  none
attr title  "Latency time of file print, stats"
attr unit  s
statistic UCACnet.owner[46] 	latency:stats
field count 196
field mean 48.033479813504
field stddev 0.51703366423328
field sum 9414.5620434467
field sqrsum 452266.30400981
field min 46.461490723958
field max 50.393706665022
attr interpolationmode  none
attr title  "Latency time of file print, stats"
attr unit  s
statistic UCACnet.owner[47] 	latency:stats
field count 201
field mean 48.043939577991
field stddev 0.49628228593224
field sum 9656.8318551762
field sqrsum 464001.50538637
field min 46.516265387858
field max 50.587676987821
attr interpolationmode  none
attr title  "Latency time of file print, stats"
attr unit  s
statistic UCACnet.owner[48] 	latency:stats
field count 199
field mean 47.988026571001
field stddev 0.93878834647764
field sum 9549.6172876292
field sqrsum 458441.79020642
field min 37.234322310543
field max 49.53397181451
attr interpolationmode  none
attr title  "Latency time of file print, stats"
attr unit  s
statistic UCACnet.owner[49] 	latency:stats
field count 194
field mean 48.045826688826
field stddev 0.54914904309181
field sum 9320.8903776322
field sqrsum 447888.08565086
field min 46.495792194411
field max 50.570789382687
attr interpolationmode  none
attr title  "Latency time of file print, stats"
attr unit  s
statistic UCACnet.owner[50] 	latency:stats
field count 201
field mean 48.052769956905
field stddev 0.55413020317301
field sum 9658.606761338
field sqrsum 464184.2208632
field min 46.242429595874
field max 50.416747661431
attr interpolationmode  none
attr title  "Latency time of file print, stats"
attr unit  s
statistic UCACnet.owner[51] 	latency:stats
field count 199
field mean 48.036537504735
field stddev 0.54538871827164
field sum 9559.2709634423
field sqrsum 459253.17302642
field min 46.40202006032
field max 50.157854454502
attr interpolationmode  none
attr title  "Latency time of file print, stats"
attr unit  s
statistic UCACnet.owner[52] 	latency:stats
field count 199
field mean 47.988764403723
field stddev 0.80388505436972
field sum 9549.7641163408
field sqrsum 458409.33406397
field min 39.317769599923
field max 49.066524063469
attr interpolationmode  none
attr title  "Latency time of file print, stats"
attr unit  s
statistic UCACnet.owner[53] 	latency:stats
field count 203
field mean 48.061837291504
field stddev 0.52411668774584
field sum 9756.5529701753
field sqrsum 468973.35043559
field min 46.272107849683
field max 49.77471982025
attr interpolationmode  none
attr title  "Latency time of file print, stats"
attr unit  s
statistic UCACnet.owner[54] 	latency:stats
field count 197
field mean 48.056999903183
field stddev 0.46313999678489
field sum 9467.2289809271
field sqrsum 455008.66395652
field min 46.392230263748
field max 49.141630532877
attr interpolationmode  none
attr title  "Latency time of file print, stats"
attr unit  s
statistic UCACnet.owner[55] 	latency:stats
field count 199
field mean 48.044805497301
field stddev 0.50494948249942
field sum 9560.916293963
field sqrsum 459402.84856745
field min 46.641309159639
field max 50.527419603986
attr interpolationmode  none
attr title  "Latency time of file print, stats"
attr unit  s
statistic UCACnet.owner[56] 	latency:stats
field count 202
field mean 48.106967354327
field stddev 0.52145946923189
field sum 9717.6074055741
field sqrsum 467539.27813771
field min 46.253719728815
field max 49.662793487364
attr interpolationmode  none
attr title  "Latency time of file print, stats"
attr unit  s
statistic UCACnet.owner[57] 	latency:stats
field count 198
field mean 47.955803785674
field stddev 0.96477356477964
field sum 9495.2491495635
field sqrsum 455535.67035472
field min 36.389604798597
field max 49.278852628293
attr interpolationmode  none
attr title  "Latency time of file print, stats"
attr unit  s
statistic UCACnet.owner[58] 	latency:stats
field count 198
field mean 47.975857851794
field stddev 0.50062048714528
field sum 9499.2198546553
field sqrsum 455782.5937617
field min 46.36440001117
field max 49.507451367655
attr interpolationmode  none
attr title  "Latency time of file print, stats"
attr unit  s
statistic UCACnet.owner[59] 	latency:stats
field count 200
field mean 48.035805443733
field stddev 0.51500457677192
field sum 9607.1610887467
field sqrsum 461540.50163875
field min 46.466803698415
field max 49.369153283409
attr interpolationmode  none
attr title  "Latency time of file print, stats"
attr unit  s
statistic UCACnet.owner[60] 	latency:stats
field count 200
field mean 48.01669582864
field stddev 0.52258314074376
field sum 9603.3391657281
field sqrsum 461174.96119469
field min 44.780262883398
field max 49.044809513267
attr interpolationmode  none
attr title  "Latency time of file print, stats"
attr unit  s
statistic UCACnet.owner[61] 	latency:stats
field count 201
field mean 47.948992885995
field stddev 0.7003361912192
field sum 9637.747570085
field sqrsum 462218.38383117
field min 41.673033584619
field max 49.442135576192
attr interpolationmode  none
attr title  "Latency time of file print, stats"
attr unit  s
statistic UCACnet.owner[62] 	latency:stats
field count 201
field mean 48.002284129374
field stddev 0.52351784124436
field sum 9648.4591100041
field sqrsum 463202.88979508
field min 46.580450164718
field max 50.340518147407
attr interpolationmode  none
attr title  "Latency time of file print, stats"
attr unit  s
statistic UCACnet.owner[63] 	latency:stats
field count 198
field mean 48.048840458217
field stddev 0.55587318159184
field sum 9513.6704107271
field sqrsum 457181.70375091
field min 46.684622229031
field max 50.556164558684
attr interpolationmode  none
attr title  "Latency time of file print, stats"
attr unit  s
statistic UCACnet.owner[64] 	latency:stats
field count 198
field mean 48.090393929293
field stddev 0.51380691100143
field sum 9521.897998
field sqrsum 457963.8331941
field min 46.453797489613
field max 49.634755394961
attr interpolationmode  none
attr title  "Latency time of file print, stats"
attr unit  s
statistic UCACnet.owner[65] 	latency:stats
field count 204
field mean 47.995045015965
field stddev 0.6459119819391
field sum 9790.9891832568
field sqrsum 470003.65866578
field min 43.086581497558
field max 49.414389569656
attr interpolationmode  none
attr title  "Latency time of file print, stats"
attr unit  s
statistic UCACnet.owner[66] 	latency:stats
field count 197
field mean 48.031037818409
field stddev 0.49805573636446
field sum 9462.1144502265
field sqrsum 454523.79666618
field min 46.437199410457
field max 49.955719348801
attr interpolationmode  none
attr title  "Latency time of file print, stats"
attr unit  s
statistic UCACnet.owner[67] 	latency:stats
field count 203
field mean 47.934822226543
field stddev 0.83071525731718
field sum 9730.7689119882
field sqrsum 466582.07566715
field min 38.768286132001
field max 49.365036169194
attr interpolationmode  none
attr title  "Latency time of file print, stats"
attr unit  s
statistic UCACnet.owner[68] 	latency:stats
field count 198
field mean 47.906809131448
field stddev 1.9330874700664
field sum 9485.5482080268
field sqrsum 455158.50246097
field min 21.695380712913
field max 49.619223903847
attr interpolationmode  none
attr title  "Latency time of file print, stats"
attr unit  s
statistic UCACnet.owner[69] 	latency:stats
field count 200
field mean 48.014072555145
field stddev 0.53956915620759
field sum 9602.8145110289
field sqrsum 461128.16850613
field min 45.866970543495
field max 49.423107453563
attr interpolationmode  none
attr title  "Latency time of file print, stats"
attr unit  s
statistic UCACnet.owner[70] 	latency:stats
field count 196
field mean 48.066473300211
field stddev 0.49140638833361
field sum 9421.0287668413
field sqrsum 452882.7163284
field min 46.772749151398
field max 50.371257014266
attr interpolationmode  none
attr title  "Latency time of file print, stats"
attr unit  s
statistic UCACnet.owner[71] 	latency:stats
field count 202
field mean 47.955121530277
field stddev 0.76074839701128
field sum 9686.9345491159
field sqrsum 464654.44992152
field min 39.715701510464
field max 49.542449530245
attr interpolationmode  none
attr title  "Latency time of file print, stats"
attr unit  s
statistic UCACnet.owner[72] 	latency:stats
field count 200
field mean 48.039008910041
field stddev 0.49737489003609
field sum 9607.8017820082
field sqrsum 461598.50438627
field min 47.0381356815
field max 50.315099633174
attr interpolationmode  none
attr title  "Latency time of file print, stats"
attr unit  s
statistic UCACnet.owner[73] 	latency:stats
field count 199
field mean 48.002823733499
field stddev 0.61466644346332
field sum 9552.5619229662
field sqrsum 458624.75352915
field min 43.384647084175
field max 49.527433021935
attr interpolationmode  none
attr title  "Latency time of file print, stats"
attr unit  s
statistic UCACnet.owner[74] 	latency:stats
field count 195
field mean 48.038343987068
field stddev 0.55076095212807
field sum 9367.4770774782
field sqrsum 450056.93363839
field min 46.217015887686
field max 50.369586631241
attr interpolationmode  none
attr title  "Latency time of file print, stats"
attr unit  s
statistic UCACnet.owner[75] 	latency:stats
field count 196
field mean 48.034615949548
field stddev 0.52796011647244
field sum 9414.7847261114
field sqrsum 452289.92323392
field min 46.108936225812
field max 49.586634844661
attr interpolationmode  none
attr title  "Latency time of file print, stats"
attr unit  s
statistic UCACnet.owner[76] 	latency:stats
field count 195
field mean 48.005584441917
field stddev 0.49756226061613
field sum 9361.0889661738
field sqrsum 449432.57506537
field min 46.239113597756
field max 49.081653358636
attr interpolationmode  none
attr title  "Latency time of file print, stats"
attr unit  s
statistic UCACnet.owner[77] 	latency:stats
field count 198
field mean 47.972290671116
field stddev 0.52830282025046
field sum 9498.513552881
field sqrsum 455720.43656471
field min 46.446987814249
field max 49.455936679552
attr interpolationmode  none
attr title  "Latency time of file print, stats"
attr unit  s
statistic UCACnet.owner[78] 	latency:stats
field count 198
field mean 48.035022955121
field stddev 0.56040397482561
field sum 9510.9345451139
field sqrsum 456919.82756435
field min 46.473763059767
field max 50.683676857923
attr interpolationmode  none
attr title  "Latency time of file print, stats"
attr unit  s
statistic UCACnet.owner[79] 	latency:stats
field count 200
field mean 48.011339210968
field stddev 0.51217962003728
field sum 9602.2678421935
field sqrsum 461069.94183079
field min 46.357487886476
field max 49.174139159717
attr interpolationmode  none
attr title  "Latency time of file print, stats"
attr unit  s
statistic UCACnet.owner[80] 	latency:stats
field count 199
field mean 48.015546786135
field stddev 0.52881020976767
field sum 9555.0938104409
field sqrsum 458848.42266825
field min 46.288784144222
field max 49.489141075135
attr interpolationmode  none
attr title  "Latency time of file print, stats"
attr unit  s
statistic UCACnet.owner[81] 	latency:stats
field count 198
field mean 47.996505758092
field stddev 0.54746492330175
field sum 9503.3081401022
field sqrsum 456184.62828226
field min 46.188472593027
field max 50.334120569956
attr interpolationmode  none
attr title  "Latency time of file print, stats"
attr unit  s
statistic UCACnet.owner[82] 	latency:stats
field count 203
field mean 47.996802907622
field stddev 0.54841105967746
field sum 9743.3509902472
field sqrsum 467710.44958613
field min 46.35995352967
field max 49.463356172782
attr interpolationmode  none
attr title  "Latency time of file print, stats"
attr unit  s
statistic UCACnet.owner[83] 	latency:stats
field count 196
field mean 48.072283332954
field stddev 0.50065609691645
field sum 9422.167533259
field sqrsum 452993.98529223
field min 46.438605940027
field max 49.504852193439
attr interpolationmode  none
attr title  "Latency time of file print, stats"
attr unit  s
statistic UCACnet.owner[84] 	latency:stats
field count 198
field mean 48.060374462674
field stddev 0.53303681330781
field sum 9515.9541436094
field sqrsum 457396.29277564
field min 46.278103691302
field max 50.683988410353
attr interpolationmode  none
attr title  "Latency time of file print, stats"
attr unit  s
statistic UCACnet.owner[85] 	latency:stats
field count 202
field mean 47.93179980506
field stddev 1.0171826813671
field sum 9682.2235606221
field sqrsum 464294.36815764
field min 35.725454147172
field max 49.21196498844
attr interpolationmode  none
attr title  "Latency time of file print, stats"
attr unit  s
statistic UCACnet.owner[86] 	latency:stats
field count 202
field mean 47.919678971639
field stddev 1.3226004823465
field sum 9679.775152271
field sqrsum 464203.32149369
field min 30.93791350026
field max 49.633458860453
attr interpolationmode  none
attr title  "Latency time of file print, stats"
attr unit  s
statistic UCACnet.owner[87] 	latency:stats
field count 197
field mean 47.981391520552
field stddev 0.51573529032913
field sum 9452.3341295488
field sqrsum 453588.27729934
field min 46.072929560377
field max 49.367923429627
attr interpolationmode  none
attr title  "Latency time of file print, stats"
attr unit  s
statistic UCACnet.owner[88] 	latency:stats
field count 195
field mean 47.993861767176
field stddev 0.5409904788184
field sum 9358.8030445994
field sqrsum 449221.87774417
field min 46.368930314665
field max 50.465941729414
attr interpolationmode  none
attr title  "Latency time of file print, stats"
attr unit  s
statistic UCACnet.owner[89] 	latency:stats
field count 198
field mean 48.042646796011
field stddev 0.50523537581257
field sum 9512.4440656101
field sqrsum 457053.27717956
field min 46.952031198019
field max 50.498725090048
attr interpolationmode  none
attr title  "Latency time of file print, stats"
attr unit  s
statistic UCACnet.owner[90] 	latency:stats
field count 198
field mean 48.012027279817
field stddev 0.53204802979945
field sum 9506.3814014037
field sqrsum 456476.40897242
field min 46.330331616646
field max 50.507091948051
attr interpolationmode  none
attr title  "Latency time of file print, stats"
attr unit  s
statistic UCACnet.owner[91] 	latency:stats
field count 200
field mean 47.943465676198
field stddev 0.74605068235349
field sum 9588.6931352397
field sqrsum 459825.94194147
field min 40.948805744745
field max 49.281581230532
attr interpolationmode  none
attr title  "Latency time of file print, stats"
attr unit  s
statistic UCACnet.owner[92] 	latency:stats
field count 197
field mean 47.989320790077
field stddev 0.5967418607821
field sum 9453.8961956452
field sqrsum 453755.8530152
field min 42.850999344096
field max 49.018885213132
attr interpolationmode  none
attr title  "Latency time of file print, stats"
attr unit  s
statistic UCACnet.owner[93] 	latency:stats
field count 202
field mean 47.974703173909
field stddev 0.52566291547283
field sum 9690.8900411295
field sqrsum 464973.11383582
field min 46.458082533777
field max 49.53122947461
attr interpolationmode  none
attr title  "Latency time of file print, stats"
attr unit  s
statistic UCACnet.owner[94] 	latency:stats
field count 200
field mean 47.932934700453
field stddev 0.88772605253617
field sum 9586.5869400907
field sqrsum 459670.06925091
field min 38.126779520639
field max 49.217010475342
attr interpolationmode  none
attr title  "Latency time of file print, stats"
attr unit  s
statistic UCACnet.owner[95] 	latency:stats
field count 198
field mean 48.039134421088
field stddev 0.53746274029261
field sum 9511.7486153754
field sqrsum 456993.07695446
field min 46.759281592839
field max 50.462639507013
attr interpolationmode  none
attr title  "Latency time of file print, stats"
attr unit  s
statistic UCACnet.owner[96] 	latency:stats
field count 204
field mean 47.998762752926
field stddev 0.51264639450453
field sum 9791.7476015969
field sqrsum 470045.11974972
field min 46.235446762097
field max 49.460673734325
attr interpolationmode  none
attr title  "Latency time of file print, stats"
attr unit  s
statistic UCACnet.owner[97] 	latency:stats
field count 198
field mean 48.104939472521
field stddev 0.53852742224955
field sum 9524.7780155591
field sqrsum 458246.00224922
field min 46.230697848404
field max 50.342450807209
attr interpolationmode  none
attr title  "Latency time of file print, stats"
attr unit  s
statistic UCACnet.owner[98] 	latency:stats
field count 198
field mean 48.079248264492
field stddev 0.49854583136087
field sum 9519.6911563695
field sqrsum 457748.55845373
field min 46.88629859285
field max 49.515221684267
attr interpolationmode  none
attr title  "Latency time of file print, stats"
attr unit  s
statistic UCACnet.owner[99] 	latency:stats
field count 196
field mean 47.971941246235
field stddev 0.52824944144074
field sum 9402.5004842621
field sqrsum 451110.61505583
field min 46.411570066021
field max 49.479247213559
attr interpolationmode  none
attr title  "Latency time of file print, stats"
attr unit  s
statistic UCACnet.owner[100] 	latency:stats
field count 200
field mean 48.052525877845
field stddev 0.50345968573675
field sum 9610.505175569
field sqrsum 461859.48950757
field min 46.617747645803
field max 50.084788469647
attr interpolationmode  none
attr title  "Latency time of file print, stats"
attr unit  s
statistic UCACnet.owner[101] 	latency:stats
field count 203
field mean 47.917488852128
field stddev 1.5630773079191
field sum 9727.250236982
field sqrsum 466598.93334789
field min 26.869234840793
field max 49.195340793593
attr interpolationmode  none
attr title  "Latency time of file print, stats"
attr unit  s
statistic UCACnet.owner[102] 	latency:stats
field count 200
field mean 48.01553706928
field stddev 0.50789010748033
field sum 9603.1074138559
field sqrsum 461149.69253017
field min 46.84830081016
field max 49.404577839721
attr interpolationmode  none
attr title  "Latency time of file print, stats"
attr unit  s
statistic UCACnet.owner[103] 	latency:stats
field count 199
field mean 47.996209678426
field stddev 0.52541237205357
field sum 9551.2457260069
field sqrsum 458478.25207142
field min 46.534784653735
field max 50.320356353258
attr interpolationmode  none
attr title  "Latency time of file print, stats"
attr unit  s
statistic UCACnet.owner[104] 	latency:stats
field count 199
field mean 48.056907084248
field stddev 0.53626449720836
field sum 9563.3245097654
field sqrsum 459640.73814528
field min 44.972097943163
field max 49.425275746974
attr interpolationmode  none
attr title  "Latency time of file print, stats"
attr unit  s
statistic UCACnet.owner[105] 	latency:stats
field count 196
field mean 48.006735758436
field stddev 0.4990158842417
field sum 9409.3202086534
field sqrsum 451759.30720962
field min 46.339885225856
field max 49.396273050353
attr interpolationmode  none
attr title  "Latency time of file print, stats"
attr unit  s
statistic UCACnet.owner[106] 	latency:stats
field count 199
field mean 47.972075541318
field stddev 0.97238687373273
field sum 9546.4430327222
field sqrsum 458149.90249061
field min 35.872715323363
field max 49.421734399477
attr interpolationmode  none
attr title  "Latency time of file print, stats"
attr unit  s
statistic UCACnet.owner[107] 	latency:stats
field count 196
field mean 48.043746151749
field stddev 0.51198317524919
field sum 9416.5742457428
field sqrsum 452458.61740205
field min 46.369506724311
field max 50.462802271401
attr interpolationmode  none
attr title  "Latency time of file print, stats"
attr unit  s
statistic UCACnet.owner[108] 	latency:stats
field count 199
field mean 47.987834124316
field stddev 0.62063679300861
field sum 9549.5789907388
field sqrsum 458339.88019033
field min 42.666051217168
field max 49.052526704491
attr interpolationmode  none
attr title  "Latency time of file print, stats"
attr unit  s
statistic UCACnet.owner[109] 	latency:stats
field count 198
field mean 48.086836952922
field stddev 0.49938149443198
field sum 9521.1937166785
field sqrsum 457893.21808087
field min 46.831264450928
field max 50.356873950722
attr interpolationmode  none
attr title  "Latency time of file print, stats"
attr unit  s
statistic UCACnet.owner[110] 	latency:stats
field count 197
field mean 47.967163470706
field stddev 0.764032102468
field sum 9449.531203729
field sqrsum 453381.62200131
field min 40.305930950667
field max 49.499993683383
attr interpolationmode  none
attr title  "Latency time of file print, stats"
attr unit  s
statistic UCACnet.owner[111] 	latency:stats
field count 199
field mean 48.024262272915
field stddev 0.5103247487044
field sum 9556.8281923102
field sqrsum 459011.18901182
field min 45.850062902491
field max 49.107744994601
attr interpolationmode  none
attr title  "Latency time of file print, stats"
attr unit  s
statistic UCACnet.owner[112] 	latency:stats
field count 199
field mean 48.036335989936
field stddev 0.51236075987513
field sum 9559.2308619972
field sqrsum 459242.40317481
field min 46.576484122988
field max 50.477639253982
attr interpolationmode  none
attr title  "Latency time of file print, stats"
attr unit  s
statistic UCACnet.owner[113] 	latency:stats
field count 196
field mean 48.0160143172
field stddev 0.56761758887942
field sum 9411.1388061713
field sqrsum 451948.20265509
field min 46.340753295833
field max 50.141907868666
attr interpolationmode  none
attr title  "Latency time of file print, stats"
attr unit  s
statistic UCACnet.owner[114] 	latency:stats
field count 199
field mean 47.999946836757
field stddev 0.5876707974149
field sum 9551.9894205146
field sqrsum 458563.36504926
field min 44.392261072251
field max 49.452924667211
attr interpolationmode  none
attr title  "Latency time of file print, stats"
attr unit  s
statistic UCACnet.owner[115] 	latency:stats
field count 195
field mean 48.091565981773
field stddev 0.48870270685304
field sum 9377.8553664458
field sqrsum 451042.08320808
field min 46.462826472876
field max 49.483715059466
attr interpolationmode  none
attr title  "Latency time of file print, stats"
attr unit  s
statistic UCACnet.owner[116] 	latency:stats
field count 204
field mean 48.060032649401
field stddev 0.4961296739008
field sum 9804.2466604778
field sqrsum 471242.38196997
field min 46.463001519243
field max 49.647227509192
attr interpolationmode  none
attr title  "Latency time of file print, stats"
attr unit  s
statistic UCACnet.owner[117] 	latency:stats
field count 203
field mean 48.026681385775
field stddev 0.50530672310831
field sum 9749.4163213123
field sqrsum 468283.68900759
field min 46.735817713894
field max 49.69704130059
attr interpolationmode  none
attr title  "Latency time of file print, stats"
attr unit  s
statistic UCACnet.owner[118] 	latency:stats
field count 196
field mean 47.989822028382
field stddev 0.61051538587139
field sum 9406.0051175628
field sqrsum 451465.19375198
field min 44.140296320134
field max 49.481121111556
attr interpolationmode  none
attr title  "Latency time of file print, stats"
attr unit  s
statistic UCACnet.owner[119] 	latency:stats
field count 195
field mean 48.005197578892
field stddev 0.50966739916437
field sum 9361.013527884
field sqrsum 449427.69755116
field min 46.554045594935
field max 50.360425664217
attr interpolationmode  none
attr title  "Latency time of file print, stats"
attr unit  s
statistic UCACnet.owner[120] 	latency:stats
field count 200
field mean 47.909544115605
field stddev 0.79776312426339
field sum 9581.9088231209
field sqrsum 459191.5322475
field min 40.245791843462
field max 49.22954276765
attr interpolationmode  none
attr title  "Latency time of file print, stats"
attr unit  s
statistic UCACnet.owner[121] 	latency:stats
field count 201
field mean 47.96900104278
field stddev 0.52558836989132
field sum 9641.7692095989
field sqrsum 462561.28589641
field min 46.182053579303
field max 49.096891570456
attr interpolationmode  none
attr title  "Latency time of file print, stats"
attr unit  s
statistic UCACnet.owner[122] 	latency:stats
field count 199
field mean 47.946275990613
field stddev 0.96006613573077
field sum 9541.3089221319
field sqrsum 457652.73283526
field min 36.733512306999
field max 49.084491251865
attr interpolationmode  none
attr title  "Latency time of file print, stats"
attr unit  s
statistic UCACnet.owner[123] 	latency:stats
field count 196
field mean 48.033074788811
field stddev 0.55709519265828
field sum 9414.4826586069
field sqrsum 452267.06887429
field min 46.363177558114
field max 50.55938338959
attr interpolationmode  none
attr title  "Latency time of file print, stats"
attr unit  s
statistic UCACnet.owner[124] 	latency:stats
field count 199
field mean 48.064687703665
field stddev 0.52549843060124
field sum 9564.8728530294
field sqrsum 459787.30402904
field min 46.334320034077
field max 50.518344433428
attr interpolationmode  none
attr title  "Latency time of file print, stats"
attr unit  s
statistic UCACnet.owner[125] 	latency:stats
field count 198
field mean 48.018344905118
field stddev 0.50334646538397
field sum 9507.6322912133
field sqrsum 456590.67805037
field min 46.301744939041
field max 49.500702291752
attr interpolationmode  none
attr title  "Latency time of file print, stats"
attr unit  s
statistic UCACnet.owner[126] 	latency:stats
field count 199
field mean 48.000825743349
field stddev 0.82933754035365
field sum 9552.1643229265
field sqrsum 458647.95968629
field min 39.041943712402
field max 49.602569366359
attr interpolationmode  none
attr title  "Latency time of file print, stats"
attr unit  s
statistic UCACnet.owner[127] 	latency:stats
field count 201
field mean 48.020283251764
field stddev 0.5383108269113
field sum 9652.0769336046
field sqrsum 463553.42402878
field min 46.381658372324
field max 50.324713072198
attr interpolationmode  none
attr title  "Latency time of file print, stats"
attr unit  s
statistic UCACnet.owner[128] 	latency:stats
field count 201
field mean 47.978068132787
field stddev 0.66427141332357
field sum 9643.5916946902
field sqrsum 462769.15067473
field min 42.184260439851
field max 49.173698334814
attr interpolationmode  none
attr title  "Latency time of file print, stats"
attr unit  s
statistic UCACnet.owner[129] 	latency:stats
field count 196
field mean 48.008917710878
field stddev 0.46851786259719
field sum 9409.7478713321
field sqrsum 451794.61548747
field min 46.376284636353
field max 49.432447822099
attr interpolationmode  none
attr title  "Latency time of file print, stats"
attr unit  s
statistic UCACnet.owner[130] 	latency:stats
field count 197
field mean 48.011024061427
field stddev 0.48309584737726
field sum 9458.1717401011
field sqrsum 454142.25378426
field min 46.692218413954
field max 49.469650186208
attr interpolationmode  none
attr title  "Latency time of file print, stats"
attr unit  s
statistic UCACnet.owner[131] 	latency:stats
field count 199
field mean 48.073620055119
field stddev 0.56977148149234
field sum 9566.6503909688
field sqrsum 459967.79472473
field min 46.432267399466
field max 50.478372596141
attr interpolationmode  none
attr title  "Latency time of file print, stats"
attr unit  s
statistic UCACnet.owner[132] 	latency:stats
field count 199
field mean 48.082800130607
field stddev 0.50308202717368
field sum 9568.4772259907
field sqrsum 460129.29013374
field min 46.535564985753
field max 50.007749827758
attr interpolationmode  none
attr title  "Latency time of file print, stats"
attr unit  s
statistic UCACnet.owner[133] 	latency:stats
field count 198
field mean 47.896533096588
field stddev 2.0823056866938
field sum 9483.5135531245
field sqrsum 455081.61217282
field min 19.648420620615
field max 49.542095194481
attr interpolationmode  none
attr title  "Latency time of file print, stats"
attr unit  s
statistic UCACnet.owner[134] 	latency:stats
field count 201
field mean 47.950573816204
field stddev 0.99828628946357
field sum 9638.0653370571
field sqrsum 462350.0784931
field min 35.493617589674
field max 48.992392964722
attr interpolationmode  none
attr title  "Latency time of file print, stats"
attr unit  s
statistic UCACnet.owner[135] 	latency:stats
field count 200
field mean 48.046327453666
field stddev 0.48105446107073
field sum 9609.2654907331
field sqrsum 461735.96762248
field min 46.646021189372
field max 50.35804706336
attr interpolationmode  none
attr title  "Latency time of file print, stats"
attr unit  s
statistic UCACnet.owner[136] 	latency:stats
field count 194
field mean 48.014850946088
field stddev 0.48583477321925
field sum 9314.8810835411
field sqrsum 447298.18164415
field min 46.592307396629
field max 49.72887721208
attr interpolationmode  none
attr title  "Latency time of file print, stats"
attr unit  s
statistic UCACnet.owner[137] 	latency:stats
field count 200
field mean 48.035109773445
field stddev 0.55306271342887
field sum 9607.021954689
field sqrsum 461535.22398402
field min 46.206635919464
field max 50.522922747384
attr interpolationmode  none
attr title  "Latency time of file print, stats"
attr unit  s
statistic UCACnet.owner[138] 	latency:stats
field count 200
field mean 47.95097071825
field stddev 1.0557687966814
field sum 9590.19414365
field sqrsum 460080.93346715
field min 35.380718651834
field max 49.511433800292
attr interpolationmode  none
attr title  "Latency time of file print, stats"
attr unit  s
statistic UCACnet.owner[139] 	latency:stats
field count 194
field mean 48.015169417533
field stddev 0.48761330398118
field sum 9314.9428670014
field sqrsum 447304.44885342
field min 45.95518268148
field max 49.179062625034
attr interpolationmode  none
attr title  "Latency time of file print, stats"
attr unit  s
statistic UCACnet.owner[140] 	latency:stats
field count 197
field mean 48.015333970109
field stddev 0.54298832423427
field sum 9459.0207921114
field sqrsum 454235.8302822
field min 45.692751809079
field max 49.221816195674
attr interpolationmode  none
attr title  "Latency time of file print, stats"
attr unit  s
statistic UCACnet.owner[141] 	latency:stats
field count 199
field mean 48.040387513164
field stddev 0.52791043163478
field sum 9560.0371151196
field sqrsum 459323.06815649
field min 46.649814264064
field max 49.717070954409
attr interpolationmode  none
attr title  "Latency time of file print, stats"
attr unit  s
statistic UCACnet.owner[142] 	latency:stats
field count 198
field mean 48.00399880075
field stddev 0.49051560435432
field sum 9504.7917625485
field sqrsum 456315.41166571
field min 46.331905069941
field max 49.500880387498
attr interpolationmode  none
attr title  "Latency time of file print, stats"
attr unit  s
statistic UCACnet.owner[143] 	latency:stats
field count 199
field mean 48.029618843291
field stddev 0.52432951976372
field sum 9557.8941498148
field sqrsum 459116.44740629
field min 46.392542587832
field max 49.515230471591
attr interpolationmode  none
attr title  "Latency time of file print, stats"
attr unit  s
statistic UCACnet.owner[144] 	latency:stats
field count 198
field mean 48.03193113146
field stddev 0.53251549908522
field sum 9510.322364029
field sqrsum 456855.0126601
field min 45.619793559884
field max 49.44915931129
attr interpolationmode  none
attr title  "Latency time of file print, stats"
attr unit  s
statistic UCACnet.owner[145] 	latency:stats
field count 203
field mean 47.919819663868
field stddev 1.3629770019668
field sum 9727.7233917653
field sqrsum 466526.00734758
field min 30.127797140686
field max 49.55177920091
attr interpolationmode  none
attr title  "Latency time of file print, stats"
attr unit  s
statistic UCACnet.owner[146] 	latency:stats
field count 199
field mean 48.048272593185
field stddev 0.51126246540303
field sum 9561.6062460439
field sqrsum 459470.41842171
field min 46.485688125146
field max 50.27628143591
attr interpolationmode  none
attr title  "Latency time of file print, stats"
attr unit  s
statistic UCACnet.owner[147] 	latency:stats
field count 198
field mean 48.023470435678
field stddev 0.48728179603476
field sum 9508.6471462642
field sqrsum 456685.01149101
field min 46.243308579173
field max 49.269938390831
attr interpolationmode  none
attr title  "Latency time of file print, stats"
attr unit  s
statistic UCACnet.owner[148] 	latency:stats
field count 199
field mean 47.991837685919
field stddev 0.52638567926266
field sum 9550.3756994978
field sqrsum 458394.94262274
field min 46.431373427178
field max 50.5766136834
attr interpolationmode  none
attr title  "Latency time of file print, stats"
attr unit  s
statistic UCACnet.owner[149] 	latency:stats
field count 196
field mean 47.8949948033
field stddev 1.908463947732
field sum 9387.4189814469
field sqrsum 450320.61908756
field min 22.279165123462
field max 49.596028345381
attr interpolationmode  none
attr title  "Latency time of file print, stats"
attr unit  s
statistic UCACnet.owner[150] 	latency:stats
field count 200
field mean 47.905892404829
field stddev 1.5688437860219
field sum 9581.1784809658
field sqrsum 459484.69831477
field min 27.161303414341
field max 49.485400665797
attr interpolationmode  none
attr title  "Latency time of file print, stats"
attr unit  s
statistic UCACnet.owner[151] 	latency:stats
field count 201
field mean 47.973599693561
field stddev 0.4855609597503
field sum 9642.6935384058
field sqrsum 462641.8736683
field min 46.24129234997
field max 49.192371535188
attr interpolationmode  none
attr title  "Latency time of file print, stats"
attr unit  s
statistic UCACnet.owner[152] 	latency:stats
field count 199
field mean 48.001892839001
field stddev 0.55875427175582
field sum 9552.3766749612
field sqrsum 458593.97836383
field min 45.332963995286
field max 49.267972325578
attr interpolationmode  none
attr title  "Latency time of file print, stats"
attr unit  s
statistic UCACnet.owner[153] 	latency:stats
field count 201
field mean 48.009978651602
field stddev 0.52615481644691
field sum 9650.005708972
field sqrsum 463351.93585375
field min 45.43736517647
field max 49.390175905492
attr interpolationmode  none
attr title  "Latency time of file print, stats"
attr unit  s
statistic UCACnet.owner[154] 	latency:stats
field count 199
field mean 47.940907750733
field stddev 0.92461568537575
field sum 9540.2406423959
field sqrsum 457537.0695617
field min 37.434498751811
field max 49.505209536264
attr interpolationmode  none
attr title  "Latency time of file print, stats"
attr unit  s
statistic UCACnet.owner[155] 	latency:stats
field count 203
field mean 48.007547052073
field stddev 0.51570818127172
field sum 9745.5320515708
field sqrsum 467912.81140877
field min 46.441660626736
field max 49.555925198638
attr interpolationmode  none
attr title  "Latency time of file print, stats"
attr unit  s
statistic UCACnet.owner[156] 	latency:stats
field count 198
field mean 48.029316964858
field stddev 0.52573876635169
field sum 9509.804759042
field sqrsum 456803.87809228
field min 45.68730551111
field max 49.560739828914
attr interpolationmode  none
attr title  "Latency time of file print, stats"
attr unit  s
statistic UCACnet.owner[157] 	latency:stats
field count 201
field mean 48.053498685012
field stddev 0.51898810748282
field sum 9658.7532356873
field sqrsum 464190.75564109
field min 46.410303307052
field max 49.317649279601
attr interpolationmode  none
attr title  "Latency time of file print, stats"
attr unit  s
statistic UCACnet.owner[158] 	latency:stats
field count 199
field mean 47.94993838534
field stddev 0.91581567327559
field sum 9542.0377386826
field sqrsum 457706.18787321
field min 37.36918004067
field max 49.483091861478
attr interpolationmode  none
attr title  "Latency time of file print, stats"
attr unit  s
statistic UCACnet.owner[159] 	latency:stats
field count 203
field mean 48.072227780307
field stddev 0.53338437390407
field sum 9758.6622394024
field sqrsum 469178.10277948
field min 46.347495806916
field max 50.588331139437
attr interpolationmode  none
attr title  "Latency time of file print, stats"
attr unit  s
statistic UCACnet.owner[160] 	latency:stats
field count 198
field mean 48.015421263719
field stddev 0.50353756067939
field sum 9507.0534102164
field sqrsum 456535.12383299
field min 45.743686037374
field max 49.077004672166
attr interpolationmode  none
attr title  "Latency time of file print, stats"
attr unit  s
statistic UCACnet.owner[161] 	latency:stats
field count 197
field mean 48.039958595549
field stddev 0.50559112503766
field sum 9463.8718433231
field sqrsum 454694.11349442
field min 46.246397602673
field max 49.412862830868
attr interpolationmode  none
attr title  "Latency time of file print, stats"
attr unit  s
statistic UCACnet.owner[162] 	latency:stats
field count 203
field mean 47.959964820615
field stddev 0.53794272518331
field sum 9735.8728585849
field sqrsum 466990.57503558
field min 46.199107070482
field max 49.398757116316
attr interpolationmode  none
attr title  "Latency time of file print, stats"
attr unit  s
statistic UCACnet.owner[163] 	latency:stats
field count 200
field mean 48.064314257307
field stddev 0.50594721465743
field sum 9612.8628514615
field sqrsum 462086.60153926
field min 46.292693054537
field max 49.670790778903
attr interpolationmode  none
attr title  "Latency time of file print, stats"
attr unit  s
statistic UCACnet.owner[164] 	latency:stats
field count 200
field mean 47.964410402366
field stddev 1.2782646608892
field sum 9592.8820804731
field sqrsum 460442.09119743
field min 31.592092390102
field max 49.37556971716
attr interpolationmode  none
attr title  "Latency time of file print, stats"
attr unit  s
statistic UCACnet.owner[165] 	latency:stats
field count 202
field mean 47.992162614295
field stddev 0.60675053055258
field sum 9694.4168480875
field sqrsum 465330.02721164
field min 43.103111924106
field max 49.136320255411
attr interpolationmode  none
attr title  "Latency time of file print, stats"
attr unit  s
statistic UCACnet.owner[166] 	latency:stats
field count 203
field mean 48.021068448406
field stddev 0.54978489140681
field sum 9748.2768950265
field sqrsum 468183.7292423
field min 46.209977094452
field max 50.601171134272
attr interpolationmode  none
attr title  "Latency time of file print, stats"
attr unit  s
statistic UCACnet.owner[167] 	latency:stats
field count 200
field mean 48.021328551601
field stddev 0.5303451496003
field sum 9604.2657103203
field sqrsum 461265.57110173
field min 46.441404177578
field max 49.954631244262
attr interpolationmode  none
attr title  "Latency time of file print, stats"
attr unit  s
statistic UCACnet.owner[168] 	latency:stats
field count 199
field mean 48.054538798271
field stddev 0.50784057403286
field sum 9562.853220856
field sqrsum 459589.56572943
field min 46.676084394657
field max 49.940091085221
attr interpolationmode  none
attr title  "Latency time of file print, stats"
attr unit  s
statistic UCACnet.owner[169] 	latency:stats
field count 194
field mean 48.057302142509
field stddev 0.48920108345599
field sum 9323.1166156468
field sqrsum 448090.02042409
field min 46.610607560896
field max 49.474661179852
attr interpolationmode  none
attr title  "Latency time of file print, stats"
attr unit  s
statistic UCACnet.owner[170] 	latency:stats
field count 195
field mean 48.005396554517
field stddev 0.53110146337667
field sum 9361.0523281308
field sqrsum 449435.7505198
field min 44.824918003945
field max 49.149095094316
attr interpolationmode  none
attr title  "Latency time of file print, stats"
attr unit  s
statistic UCACnet.owner[171] 	latency:stats
field count 202
field mean 48.031290603526
field stddev 0.49124672932553
field sum 9702.3207019123
field sqrsum 466063.49115533
field min 46.778664193683
field max 49.482587032752
attr interpolationmode  none
attr title  "Latency time of file print, stats"
attr unit  s
statistic UCACnet.owner[172] 	latency:stats
field count 198
field mean 48.002987921288
field stddev 0.50380857829705
field sum 9504.591608415
field sqrsum 456298.79932298
field min 46.309676021033
field max 49.665476900453
attr interpolationmode  none
attr title  "Latency time of file print, stats"
attr unit  s
statistic UCACnet.owner[173] 	latency:stats
field count 197
field mean 48.060484216549
field stddev 0.49084853277453
field sum 9467.9153906602
field sqrsum 455079.82092374
field min 46.58434653961
field max 49.074430235371
attr interpolationmode  none
attr title  "Latency time of file print, stats"
attr unit  s
statistic UCACnet.owner[174] 	latency:stats
field count 203
field mean 47.952891929154
field stddev 1.0140283196331
field sum 9734.4370616182
field sqrsum 467002.11560039
field min 35.206563320741
field max 49.309048217232
attr interpolationmode  none
attr title  "Latency time of file print, stats"
attr unit  s
statistic UCACnet.owner[175] 	latency:stats
field count 203
field mean 48.051387158114
field stddev 0.47731730895568
field sum 9754.4315930972
field sqrsum 468759.99101357
field min 46.393673615407
field max 49.31053395029
attr interpolationmode  none
attr title  "Latency time of file print, stats"
attr unit  s
statistic UCACnet.owner[176] 	latency:stats
field count 196
field mean 48.099026316483
field stddev 0.52318080317946
field sum 9427.4091580306
field sqrsum 453502.57622816
field min 46.408398340214
field max 50.120109994181
attr interpolationmode  none
attr title  "Latency time of file print, stats"
attr unit  s
statistic UCACnet.owner[177] 	latency:stats
field count 199
field mean 47.927109117669
field stddev 1.1192474363456
field sum 9537.4947144161
field sqrsum 457352.58742211
field min 33.869361581528
field max 49.620329331959
attr interpolationmode  none
attr title  "Latency time of file print, stats"
attr unit  s
statistic UCACnet.owner[178] 	latency:stats
field count 200
field mean 48.038004914335
field stddev 0.48790177388899
field sum 9607.6009828671
field sqrsum 461577.35480999
field min 46.444971193589
field max 49.40378831927
attr interpolationmode  none
attr title  "Latency time of file print, stats"
attr unit  s
statistic UCACnet.owner[179] 	latency:stats
field count 203
field mean 48.019466811716
field stddev 0.55923423481256
field sum 9747.9517627784
field sqrsum 468154.62022669
field min 45.167662249633
field max 49.49920385137
attr interpolationmode  none
attr title  "Latency time of file print, stats"
attr unit  s
statistic UCACnet.owner[180] 	latency:stats
field count 199
field mean 48.027011774042
field stddev 0.54150134895844
field sum 9557.3753430344
field sqrsum 459070.23642362
field min 46.399464263938
field max 49.448093479469
attr interpolationmode  none
attr title  "Latency time of file print, stats"
attr unit  s
statistic UCACnet.owner[181] 	latency:stats
field count 198
field mean 47.87188803473
field stddev 2.1877897743655
field sum 9478.6338308766
field sqrsum 454703.023021
field min 18.013058898283
field max 49.458550374975
attr interpolationmode  none
attr title  "Latency time of file print, stats"
attr unit  s
statistic UCACnet.owner[182] 	latency:stats
field count 204
field mean 48.059402823285
field stddev 0.53276033205324
field sum 9804.1181759502
field sqrsum 471237.68296008
field min 46.375570874704
field max 50.526607304015
attr interpolationmode  none
attr title  "Latency time of file print, stats"
attr unit  s
statistic UCACnet.owner[183] 	latency:stats
field count 198
field mean 48.076599551118
field stddev 0.51064500392506
field sum 9519.1667111213
field sqrsum 457700.53541996
field min 46.487676662776
field max 49.687789894905
attr interpolationmode  none
attr title  "Latency time of file print, stats"
attr unit  s
statistic UCACnet.owner[184] 	latency:stats
field count 198
field mean 47.961399601997
field stddev 0.86266244403413
field sum 9496.3571211953
field sqrsum 455605.18339191
field min 38.361759269316
field max 49.570066781738
attr interpolationmode  none
attr title  "Latency time of file print, stats"
attr unit  s
statistic UCACnet.owner[185] 	latency:stats
field count 199
field mean 48.032947162584
field stddev 0.51528627430263
field sum 9558.5564853542
field sqrsum 459178.2115606
field min 46.66069016899
field max 50.427259863129
attr interpolationmode  none
attr title  "Latency time of file print, stats"
attr unit  s
statistic UCACnet.owner[186] 	latency:stats
field count 200
field mean 48.007730151643
field stddev 0.53519118221129
field sum 9601.5460303286
field sqrsum 461005.43035329
field min 46.42406536582
field max 50.661728303834
attr interpolationmode  none
attr title  "Latency time of file print, stats"
attr unit  s
statistic UCACnet.owner[187] 	latency:stats
field count 197
field mean 48.042359853435
field stddev 0.51069859526534
field sum 9464.3448911267
field sqrsum 454740.58239535
field min 46.240565628275
field max 49.680241690053
attr interpolationmode  none
attr title  "Latency time of file print, stats"
attr unit  s
statistic UCACnet.owner[188] 	latency:stats
field count 198
field mean 48.056228781247
field stddev 0.52371535257076
field sum 9515.133298687
field sqrsum 457315.45540656
field min 45.498524734662
field max 49.557511826385
attr interpolationmode  none
attr title  "Latency time of file print, stats"
attr unit  s
statistic UCACnet.owner[189] 	latency:stats
field count 203
field mean 47.942539979553
field stddev 0.5513871195387
field sum 9732.3356158493
field sqrsum 466654.30296391
field min 44.7838891673
field max 49.310226817028
attr interpolationmode  none
attr title  "Latency time of file print, stats"
attr unit  s
statistic UCACnet.owner[190] 	latency:stats
field count 199
field mean 47.941579464956
field stddev 0.72442471920164
field sum 9540.3743135262
field sqrsum 457484.52192975
field min 41.507562019251
field max 49.139642272938
attr interpolationmode  none
attr title  "Latency time of file print, stats"
attr unit  s
statistic UCACnet.owner[191] 	latency:stats
field count 203
field mean 47.993439332269
field stddev 0.45855777066308
field sum 9742.6681844507
field sqrsum 467626.63004113
field min 46.396896582146
field max 49.448671151044
attr interpolationmode  none
attr title  "Latency time of file print, stats"
attr unit  s
statistic UCACnet.owner[192] 	latency:stats
field count 200
field mean 47.988974158452
field stddev 0.54204188294633
field sum 9597.7948316904
field sqrsum 460646.79622728
field min 46.276603164984
field max 50.221775985331
attr interpolationmode  none
attr title  "Latency time of file print, stats"
attr unit  s
statistic UCACnet.owner[193] 	latency:stats
field count 200
field mean 48.018035520567
field stddev 0.50097841275906
field sum 9603.6071041135
field sqrsum 461196.29194553
field min 46.735239429871
field max 49.885092406909
attr interpolationmode  none
attr title  "Latency time of file print, stats"
attr unit  s
statistic UCACnet.owner[194] 	latency:stats
field count 197
field mean 47.897809555946
field stddev 1.8854112931237
field sum 9435.8684825215
field sqrsum 452654.16761664
field min 22.387941816967
field max 49.086323473604
attr interpolationmode  none
attr title  "Latency time of file print, stats"
attr unit  s
statistic UCACnet.owner[195] 	latency:stats
field count 201
field mean 47.989404794929
field stddev 0.72426365310933
field sum 9645.8703637807
field sqrsum 463004.48905473
field min 40.548543885076
field max 49.409876276291
attr interpolationmode  none
attr title  "Latency time of file print, stats"
attr unit  s
statistic UCACnet.owner[196] 	latency:stats
field count 203
field mean 48.034944764205
field stddev 0.51889498330577
field sum 9751.0937871335
field sqrsum 468447.64036028
field min 46.503381688488
field max 49.903655680793
attr interpolationmode  none
attr title  "Latency time of file print, stats"
attr unit  s
statistic UCACnet.owner[197] 	latency:stats
field count 201
field mean 48.001106721292
field stddev 0.50308582871362
field sum 9648.2224509798
field sqrsum 463175.97461046
field min 46.483521901673
field max 49.638703249699
attr interpolationmode  none
attr title  "Latency time of file print, stats"
attr unit  s
statistic UCACnet.owner[198] 	latency:stats
field count 202
field mean 47.87039288221
field stddev 2.286274922564
field sum 9669.8193622064
field sqrsum 463948.68962615
field min 16.380001
field max 49.645971702507
attr interpolationmode  none
attr title  "Latency time of file print, stats"
attr unit  s
statistic UCACnet.owner[199] 	latency:stats
field count 199
field mean 47.997970918646
field stddev 0.81648344429292
field sum 9551.5962128106
field sqrsum 458589.23300167
field min 39.483651342618
field max 49.515836921177
attr interpolationmode  none
attr title  "Latency time of file print, stats"
attr unit  s
statistic UCACnet.owner[200] 	latency:stats
field count 199
field mean 48.058650254474
field stddev 0.51549821943928
field sum 9563.6714006402
field sqrsum 459669.7551981
field min 46.842336786377
field max 50.612724985199
attr interpolationmode  none
attr title  "Latency time of file print, stats"
attr unit  s
statistic UCACnet.owner[201] 	latency:stats
field count 203
field mean 48.004149872476
field stddev 0.54998472683243
field sum 9744.8424241127
field sqrsum 467853.97781712
field min 46.377395021807
field max 50.038236083439
attr interpolationmode  none
attr title  "Latency time of file print, stats"
attr unit  s
statistic UCACnet.owner[202] 	latency:stats
field count 197
field mean 48.032885236338
field stddev 0.53441912492907
field sum 9462.4783915586
field sqrsum 454566.11697807
field min 44.973849796377
field max 49.485273756178
attr interpolationmode  none
attr title  "Latency time of file print, stats"
attr unit  s
statistic UCACnet.owner[203] 	latency:stats
field count 200
field mean 48.079980397278
field stddev 0.53671240145867
field sum 9615.9960794555
field sqrsum 462394.22698069
field min 46.343564282899
field max 50.703979870558
attr interpolationmode  none
attr title  "Latency time of file print, stats"
attr unit  s
statistic UCACnet.owner[204] 	latency:stats
field count 196
field mean 48.045792550602
field stddev 0.5444363765499
field sum 9416.975339918
field sqrsum 452503.84377461
field min 46.547932090593
field max 50.605487667421
attr interpolationmode  none
attr title  "Latency time of file print, stats"
attr unit  s
statistic UCACnet.owner[205] 	latency:stats
field count 201
field mean 48.001330303393
field stddev 0.57126404254561
field sum 9648.2673909819
field sqrsum 463194.93841124
field min 45.473599022571
field max 49.517487825233
attr interpolationmode  none
attr title  "Latency time of file print, stats"
attr unit  s
statistic UCACnet.owner[206] 	latency:stats
field count 198
field mean 47.98243701619
field stddev 0.47040539123142
field sum 9500.5225292057
field sqrsum 455901.81628123
field min 46.707634627776
field max 49.154414954016
attr interpolationmode  none
attr title  "Latency time of file print, stats"
attr unit  s
statistic UCACnet.owner[207] 	latency:stats
field count 202
field mean 48.011598189246
field stddev 0.49256881483503
field sum 9698.3428342278
field sqrsum 465681.70669001
field min 46.080359195835
field max 48.967547865786
attr interpolationmode  none
attr title  "Latency time of file print, stats"
attr unit  s
statistic UCACnet.owner[208] 	latency:stats
field count 192
field mean 47.998951473736
field stddev 0.54719544624227
field sum 9215.7986829573
field sqrsum 442405.86354056
field min 44.288856679843
field max 49.460209493889
attr interpolationmode  none
attr title  "Latency time of file print, stats"
attr unit  s
statistic UCACnet.owner[209] 	latency:stats
field count 197
field mean 48.043576093226
field stddev 0.52418795612785
field sum 9464.5844903656
field sqrsum 454766.34066427
field min 46.530864846237
field max 50.48282231198
attr interpolationmode  none
attr title  "Latency time of file print, stats"
attr unit  s
statistic UCACnet.owner[210] 	latency:stats
field count 201
field mean 48.051144103389
field stddev 0.52520208168983
field sum 9658.2799647811
field sqrsum 464146.56982389
field min 46.212456340362
field max 50.153136726634
attr interpolationmode  none
attr title  "Latency time of file print, stats"
attr unit  s
statistic UCACnet.owner[211] 	latency:stats
field count 195
field mean 48.040678934182
field stddev 0.48309477865514
field sum 9367.9323921656
field sqrsum 450087.10815879
field min 46.387069876793
field max 49.395736377509
attr interpolationmode  none
attr title  "Latency time of file print, stats"
attr unit  s
statistic UCACnet.owner[212] 	latency:stats
field count 200
field mean 48.071347023206
field stddev 0.51026107645825
field sum 9614.2694046412
field sqrsum 462222.69383196
field min 46.498817962533
field max 50.233157697065
attr interpolationmode  none
attr title  "Latency time of file print, stats"
attr unit  s
statistic UCACnet.owner[213] 	latency:stats
field count 196
field mean 48.04243530157
field stddev 0.49281022219064
field sum 9416.3173191077
field sqrsum 452430.17365573
field min 46.460686749501
field max 49.643658101909
attr interpolationmode  none
attr title  "Latency time of file print, stats"
attr unit  s
statistic UCACnet.owner[214] 	latency:stats
field count 200
field mean 48.0047390222
field stddev 0.49099029729195
field sum 9600.94780444
field sqrsum 460938.96694084
field min 46.512081811513
field max 50.048858289279
attr interpolationmode  none
attr title  "Latency time of file print, stats"
attr unit  s
statistic UCACnet.owner[215] 	latency:stats
field count 196
field mean 48.035990530609
field stddev 0.51681015581981
field sum 9415.0541439994
field sqrsum 452313.53479007
field min 46.417105699068
field max 50.360479104735
attr interpolationmode  none
attr title  "Latency time of file print, stats"
attr unit  s
statistic UCACnet.owner[216] 	latency:stats
field count 197
field mean 48.010917896271
field stddev 0.56919766784451
field sum 9458.1508255654
field sqrsum 454158.00398984
field min 43.424866476012
field max 49.499971261712
attr interpolationmode  none
attr title  "Latency time of file print, stats"
attr unit  s
statistic UCACnet.owner[217] 	latency:stats
field count 200
field mean 47.984690385561
field stddev 0.50379873519228
field sum 9596.9380771121
field sqrsum 460556.61109957
field min 46.392404147596
field max 49.534293098969
attr interpolationmode  none
attr title  "Latency time of file print, stats"
attr unit  s
statistic UCACnet.owner[218] 	latency:stats
field count 197
field mean 48.047071335416
field stddev 0.50744134687311
field sum 9465.2730530769
field sqrsum 454829.11894759
field min 46.17501097154
field max 49.407375193867
attr interpolationmode  none
attr title  "Latency time of file print, stats"
attr unit  s
statistic UCACnet.owner[219] 	latency:stats
field count 198
field mean 48.055675165846
field stddev 0.55238243122688
field sum 9515.0236828374
field sqrsum 457310.99718878
field min 46.386371505722
field max 50.664986769594
attr interpolationmode  none
attr title  "Latency time of file print, stats"
attr unit  s
statistic UCACnet.owner[220] 	latency:stats
field count 193
field mean 47.992219392454
field stddev 0.52483474621061
field sum 9262.4983427436
field sqrsum 444580.73927727
field min 46.251176862412
field max 49.522373154486
attr interpolationmode  none
attr title  "Latency time of file print, stats"
attr unit  s
statistic UCACnet.owner[221] 	latency:stats
field count 199
field mean 48.022627942557
field stddev 0.52560419256259
field sum 9556.5029605689
field sqrsum 458983.08554126
field min 46.207169819359
field max 49.463411606283
attr interpolationmode  none
attr title  "Latency time of file print, stats"
attr unit  s
statistic UCACnet.owner[222] 	latency:stats
field count 198
field mean 48.025102902253
field stddev 0.51427905729035
field sum 9508.9703746461
field sqrsum 456721.38387777
field min 46.348298901468
field max 49.642467606352
attr interpolationmode  none
attr title  "Latency time of file print, stats"
attr unit  s
statistic UCACnet.owner[223] 	latency:stats
field count 200
field mean 48.02167041537
field stddev 0.50773735193506
field sum 9604.334083074
field sqrsum 461267.46754298
field min 45.551000572487
field max 49.193637611869
attr interpolationmode  none
attr title  "Latency time of file print, stats"
attr unit  s
statistic UCACnet.owner[224] 	latency:stats
field count 198
field mean 48.05890867258
field stddev 0.57377248402728
field sum 9515.6639171707
field sqrsum 457377.27848236
field min 46.497325985315
field max 50.648680732458
attr interpolationmode  none
attr title  "Latency time of file print, stats"
attr unit  s
statistic UCACnet.owner[225] 	latency:stats
field count 199
field mean 47.909710495235
field stddev 0.93736813048688
field sum 9534.0323885517
field sqrsum 456946.70607209
field min 37.095799931302
field max 49.08709932007
attr interpolationmode  none
attr title  "Latency time of file print, stats"
attr unit  s
statistic UCACnet.owner[226] 	latency:stats
field count 199
field mean 48.028295472697
field stddev 0.54627517407144
field sum 9557.6307990666
field sqrsum 459095.80251655
field min 45.655614968158
field max 49.512072031583
attr interpolationmode  none
attr title  "Latency time of file print, stats"
attr unit  s
statistic UCACnet.owner[227] 	latency:stats
field count 200
field mean 48.048774644338
field stddev 0.53839051186292
field sum 9609.7549288677
field sqrsum 461794.63196879
field min 46.901352626917
field max 50.452880819282
attr interpolationmode  none
attr title  "Latency time of file print, stats"
attr unit  s
statistic UCACnet.owner[228] 	latency:stats
field count 197
field mean 48.082365259988
field stddev 0.51605360154701
field sum 9472.2259562177
field sqrsum 455499.22527066
field min 46.365823302904
field max 50.129844359464
attr interpolationmode  none
attr title  "Latency time of file print, stats"
attr unit  s
statistic UCACnet.owner[229] 	latency:stats
field count 199
field mean 48.021715612217
field stddev 0.48320524596924
field sum 9556.3214068312
field sqrsum 458957.17938512
field min 46.52026112322
field max 49.538321956201
attr interpolationmode  none
attr title  "Latency time of file print, stats"
attr unit  s
statistic UCACnet.owner[230] 	latency:stats
field count 200
field mean 48.033735463971
field stddev 0.49935462506144
field sum 9606.7470927942
field sqrsum 461497.57017782
field min 46.210356070419
field max 49.502715829144
attr interpolationmode  none
attr title  "Latency time of file print, stats"
attr unit  s
statistic UCACnet.owner[231] 	latency:stats
field count 199
field mean 48.024490813683
field stddev 0.54559192362506
field sum 9556.8736719229
field sqrsum 459022.93063312
field min 46.283353995215
field max 50.594246236486
attr interpolationmode  none
attr title  "Latency time of file print, stats"
attr unit  s
statistic UCACnet.owner[232] 	latency:stats
field count 204
field mean 48.023208469602
field stddev 0.5065250594949
field sum 9796.7345277989
field sqrsum 470522.70777992
field min 46.439392901295
field max 49.566840290376
attr interpolationmode  none
attr title  "Latency time of file print, stats"
attr unit  s
statistic UCACnet.owner[233] 	latency:stats
field count 201
field mean 48.038752524306
field stddev 0.58191399901029
field sum 9655.7892573856
field sqrsum 463919.79534285
field min 44.288961644223
field max 49.694620909259
attr interpolationmode  none
attr title  "Latency time of file print, stats"
attr unit  s
statistic UCACnet.owner[234] 	latency:stats
field count 198
field mean 48.038397260705
field stddev 0.55798993347269
field sum 9511.6026576196
field sqrsum 456983.48354758
field min 46.111444941597
field max 50.119708141659
attr interpolationmode  none
attr title  "Latency time of file print, stats"
attr unit  s
statistic UCACnet.owner[235] 	latency:stats
field count 197
field mean 48.014234716657
field stddev 0.54787517479894
field sum 9458.8042391813
field sqrsum 454216.07965156
field min 46.211677980856
field max 49.45646182218
attr interpolationmode  none
attr title  "Latency time of file print, stats"
attr unit  s
statistic UCACnet.owner[236] 	latency:stats
field count 195
field mean 48.073865676584
field stddev 0.47216422591755
field sum 9374.403806934
field sqrsum 450707.07958951
field min 46.44263847141
field max 49.444886308397
attr interpolationmode  none
attr title  "Latency time of file print, stats"
attr unit  s
statistic UCACnet.owner[237] 	latency:stats
field count 199
field mean 48.008267920499
field stddev 0.50003405587802
field sum 9553.6453161792
field sqrsum 458703.47069984
field min 46.405361874412
field max 49.094391580582
attr interpolationmode  none
attr title  "Latency time of file print, stats"
attr unit  s
statistic UCACnet.owner[238] 	latency:stats
field count 198
field mean 48.025905458112
field stddev 0.53644501824328
field sum 9509.1292807062
field sqrsum 456741.23515591
field min 46.842090327808
field max 50.651237068477
attr interpolationmode  none
attr title  "Latency time of file print, stats"
attr unit  s
statistic UCACnet.owner[239] 	latency:stats
field count 198
field mean 48.059354586182
field stddev 0.49242193484038
field sum 9515.752208064
field sqrsum 457368.67795589
field min 46.623785026723
field max 50.246452300556
attr interpolationmode  none
attr title  "Latency time of file print, stats"
attr unit  s
statistic UCACnet.owner[240] 	latency:stats
field count 197
field mean 48.02518247845
field stddev 0.5419188395552
field sum 9460.9609482546
field sqrsum 454421.93646303
field min 46.510029728568
field max 50.641973716917
attr interpolationmode  none
attr title  "Latency time of file print, stats"
attr unit  s
statistic UCACnet.owner[241] 	latency:stats
field count 200
field mean 48.043399840555
field stddev 0.55491701078916
field sum 9608.6799681111
field sqrsum 461694.93229278
field min 46.381482962766
field max 50.446717563559
attr interpolationmode  none
attr title  "Latency time of file print, stats"
attr unit  s
statistic UCACnet.owner[242] 	latency:stats
field count 195
field mean 48.018701715536
field stddev 0.50275406649194
field sum 9363.6468345295
field sqrsum 449679.20007726
field min 46.322532142089
field max 49.500827653264
attr interpolationmode  none
attr title  "Latency time of file print, stats"
attr unit  s
statistic UCACnet.owner[243] 	latency:stats
field count 196
field mean 48.033636726724
field stddev 0.50787678774158
field sum 9414.5927984379
field sqrsum 452267.42848235
field min 46.467307414495
field max 49.658388691964
attr interpolationmode  none
attr title  "Latency time of file print, stats"
attr unit  s
statistic UCACnet.owner[244] 	latency:stats
field count 199
field mean 48.02523726553
field stddev 0.5022142734893
field sum 9557.0222158405
field sqrsum 459028.19886463
field min 46.588981782423
field max 49.260355340662
attr interpolationmode  none
attr title  "Latency time of file print, stats"
attr unit  s
statistic UCACnet.owner[245] 	latency:stats
field count 201
field mean 47.988304633676
field stddev 0.61968486999571
field sum 9645.649231369
field sqrsum 462955.15557214
field min 43.670493988169
field max 49.602124612171
attr interpolationmode  none
attr title  "Latency time of file print, stats"
attr unit  s
statistic UCACnet.owner[246] 	latency:stats
field count 201
field mean 48.070942066577
field stddev 0.48507520396699
field sum 9662.2593553819
field sqrsum 464520.9692955
field min 46.956601827138
field max 50.43109629847
attr interpolationmode  none
attr title  "Latency time of file print, stats"
attr unit  s
statistic UCACnet.owner[247] 	latency:stats
field count 200
field mean 47.996163568891
field stddev 0.49041576897982
field sum 9599.2327137783
field sqrsum 460774.20448402
field min 46.30438321172
field max 49.594511318013
attr interpolationmode  none
attr title  "Latency time of file print, stats"
attr unit  s
statistic UCACnet.owner[248] 	latency:stats
field count 197
field mean 48.030791306399
field stddev 0.47623119944866
field sum 9462.0658873607
field sqrsum 454514.96400966
field min 46.593581607565
field max 49.121688683304
attr interpolationmode  none
attr title  "Latency time of file print, stats"
attr unit  s
statistic UCACnet.owner[249] 	latency:stats
field count 195
field mean 48.039077185266
field stddev 0.53180940716239
field sum 9367.6200511268
field sqrsum 450066.68999996
field min 46.399673869226
field max 50.382530749985
attr interpolationmode  none
attr title  "Latency time of file print, stats"
attr unit  s
statistic UCACnet.owner[250] 	latency:stats
field count 200
field mean 48.059302628518
field stddev 0.51751578576311
field sum 9611.8605257036
field sqrsum 461992.61052301
field min 46.480469722001
field max 50.291037600858
attr interpolationmode  none
attr title  "Latency time of file print, stats"
attr unit  s
statistic UCACnet.owner[251] 	latency:stats
field count 196
field mean 48.065340914425
field stddev 0.49225595620038
field sum 9420.8068192274
field sqrsum 452861.54306076
field min 46.757737936341
field max 49.486740931361
attr interpolationmode  none
attr title  "Latency time of file print, stats"
attr unit  s
statistic UCACnet.owner[252] 	latency:stats
field count 198
field mean 47.893235791775
field stddev 1.9076707608731
field sum 9482.8606867715
field sqrsum 454881.80677529
field min 22.021268591443
field max 49.70448834243
attr interpolationmode  none
attr title  "Latency time of file print, stats"
attr unit  s
statistic UCACnet.owner[253] 	latency:stats
field count 200
field mean 48.017078125459
field stddev 0.5098626869284
field sum 9603.4156250918
field sqrsum 461179.69037323
field min 46.354116529766
field max 49.372517662586
attr interpolationmode  none
attr title  "Latency time of file print, stats"
attr unit  s
statistic UCACnet.owner[254] 	latency:stats
field count 197
field mean 48.014181436568
field stddev 0.5632745839239
field sum 9458.793743004
field sqrsum 454218.42548602
[...]
field mean 48.056234743622
field stddev 0.49413235668126
field sum 9515.1344792371
field sqrsum 457309.63700818
field min 46.777969754244
field max 49.516259471135
attr interpolationmode  none
attr title  "Latency time of file print, stats"
attr unit  s
statistic UCACnet.owner[637] 	latency:stats
field count 198
field mean 48.061480135934
field stddev 0.45125867561353
field sum 9516.1730669149
field sqrsum 457401.47880093
field min 46.723370282799
field max 48.991138816922
attr interpolationmode  none
attr title  "Latency time of file print, stats"
attr unit  s
statistic UCACnet.owner[638] 	latency:stats
field count 201
field mean 48.046380417333
field stddev 0.51758240494134
field sum 9657.3224638839
field sqrsum 464052.9672218
field min 46.742719221736
field max 50.640610048877
attr interpolationmode  none
attr title  "Latency time of file print, stats"
attr unit  s
statistic UCACnet.owner[639] 	latency:stats
field count 199
field mean 47.922029798946
field stddev 1.0513918985586
field sum 9536.4839299902
field sqrsum 457226.54120518
field min 35.453725565509
field max 49.318612202873
attr interpolationmode  none
attr title  "Latency time of file print, stats"
attr unit  s
statistic UCACnet.owner[640] 	latency:stats
field count 199
field mean 48.018221411803
field stddev 0.5860389031238
field sum 9555.6260609488
field sqrsum 458912.16935903
field min 45.053466117765
field max 49.608148626178
attr interpolationmode  none
attr title  "Latency time of file print, stats"
attr unit  s
statistic UCACnet.owner[641] 	latency:stats
field count 199
field mean 47.995168341694
field stddev 0.55095732924131
field sum 9551.0384999972
field sqrsum 458463.80433314
field min 44.548047672443
field max 49.405135120172
attr interpolationmode  none
attr title  "Latency time of file print, stats"
attr unit  s
statistic UCACnet.owner[642] 	latency:stats
field count 199
field mean 47.943296199499
field stddev 0.88293038864355
field sum 9540.7159437003
field sqrsum 457567.7245262
field min 38.331387560773
field max 49.486195071333
attr interpolationmode  none
attr title  "Latency time of file print, stats"
attr unit  s
statistic UCACnet.owner[643] 	latency:stats
field count 201
field mean 48.011244341903
field stddev 0.50650421744385
field sum 9650.2601127225
field sqrsum 463372.3055393
field min 46.448735504382
field max 50.221774354718
attr interpolationmode  none
attr title  "Latency time of file print, stats"
attr unit  s
statistic UCACnet.owner[644] 	latency:stats
field count 195
field mean 47.905178117501
field stddev 1.3965254997739
field sum 9341.5097329127
field sqrsum 447885.04263503
field min 29.961401080255
field max 49.012567477102
attr interpolationmode  none
attr title  "Latency time of file print, stats"
attr unit  s
statistic UCACnet.owner[645] 	latency:stats
field count 197
field mean 48.050528443299
field stddev 0.48598822233837
field sum 9465.9541033299
field sqrsum 454890.38905726
field min 46.472187204621
field max 49.339106493699
attr interpolationmode  none
attr title  "Latency time of file print, stats"
attr unit  s
statistic UCACnet.owner[646] 	latency:stats
field count 200
field mean 48.036352637834
field stddev 0.55691612241019
field sum 9607.2705275667
field sqrsum 461559.95590717
field min 45.678554588562
field max 49.471177713524
attr interpolationmode  none
attr title  "Latency time of file print, stats"
attr unit  s
statistic UCACnet.owner[647] 	latency:stats
field count 198
field mean 48.033369050927
field stddev 0.49571594248883
field sum 9510.6070720835
field sqrsum 456874.90904798
field min 46.400729632301
field max 49.440863342409
attr interpolationmode  none
attr title  "Latency time of file print, stats"
attr unit  s
statistic UCACnet.owner[648] 	latency:stats
field count 200
field mean 48.00475471384
field stddev 0.55909621524956
field sum 9600.950942768
field sqrsum 460953.50015419
field min 44.703350812635
field max 49.278918106283
attr interpolationmode  none
attr title  "Latency time of file print, stats"
attr unit  s
statistic UCACnet.owner[649] 	latency:stats
field count 199
field mean 47.999774708455
field stddev 0.5019382443263
field sum 9551.9551669824
field sqrsum 458541.58055664
field min 46.14441656611
field max 49.105365178554
attr interpolationmode  none
attr title  "Latency time of file print, stats"
attr unit  s
statistic UCACnet.owner[650] 	latency:stats
field count 201
field mean 48.041817024775
field stddev 0.50781109283068
field sum 9656.4052219798
field sqrsum 463962.82721263
field min 46.261294046498
field max 49.332346585344
attr interpolationmode  none
attr title  "Latency time of file print, stats"
attr unit  s
statistic UCACnet.owner[651] 	latency:stats
field count 197
field mean 48.014612157686
field stddev 0.48629751228894
field sum 9458.8785950641
field sqrsum 454210.73830165
field min 46.733921110931
field max 49.681234487161
attr interpolationmode  none
attr title  "Latency time of file print, stats"
attr unit  s
statistic UCACnet.owner[652] 	latency:stats
field count 199
field mean 48.010433808467
field stddev 0.52851388117427
field sum 9554.0763278848
field sqrsum 458750.65587163
field min 46.538291230273
field max 50.643652527426
attr interpolationmode  none
attr title  "Latency time of file print, stats"
attr unit  s
statistic UCACnet.owner[653] 	latency:stats
field count 196
field mean 48.043106777907
field stddev 0.53654775740147
field sum 9416.4489284698
field sqrsum 452451.59862089
field min 46.70770163021
field max 49.44628229749
attr interpolationmode  none
attr title  "Latency time of file print, stats"
attr unit  s
statistic UCACnet.owner[654] 	latency:stats
field count 202
field mean 48.005086267416
field stddev 0.55343424921707
field sum 9697.027426018
field sqrsum 465568.2023066
field min 46.360609413876
field max 50.646103891574
attr interpolationmode  none
attr title  "Latency time of file print, stats"
attr unit  s
statistic UCACnet.owner[655] 	latency:stats
field count 199
field mean 48.024871380048
field stddev 0.52980973372662
field sum 9556.9494046296
field sqrsum 459026.84421704
field min 46.621146672476
field max 49.648643828497
attr interpolationmode  none
attr title  "Latency time of file print, stats"
attr unit  s
statistic UCACnet.owner[656] 	latency:stats
field count 198
field mean 48.023145143148
field stddev 0.54510179282818
field sum 9508.5827383434
field sqrsum 456690.58473411
field min 45.355033021169
field max 49.530850111449
attr interpolationmode  none
attr title  "Latency time of file print, stats"
attr unit  s
statistic UCACnet.owner[657] 	latency:stats
field count 200
field mean 48.027574125517
field stddev 0.52785116445581
field sum 9605.5148251033
field sqrsum 461385.02201991
field min 46.595291527136
field max 49.472466667903
attr interpolationmode  none
attr title  "Latency time of file print, stats"
attr unit  s
statistic UCACnet.owner[658] 	latency:stats
field count 196
field mean 48.036666654026
field stddev 0.50656624748405
field sum 9415.1866641891
field sqrsum 452324.22209889
field min 46.196068872673
field max 49.270564614067
attr interpolationmode  none
attr title  "Latency time of file print, stats"
attr unit  s
statistic UCACnet.owner[659] 	latency:stats
field count 198
field mean 48.076883146673
field stddev 0.50065816326561
field sum 9519.2228630412
field sqrsum 457703.94497706
field min 46.437513641828
field max 49.901919954688
attr interpolationmode  none
attr title  "Latency time of file print, stats"
attr unit  s
statistic UCACnet.owner[660] 	latency:stats
field count 199
field mean 47.953040552971
field stddev 0.72296782465788
field sum 9542.6550700413
field sqrsum 457702.81668685
field min 41.454511025717
field max 49.323859998452
attr interpolationmode  none
attr title  "Latency time of file print, stats"
attr unit  s
statistic UCACnet.owner[661] 	latency:stats
field count 200
field mean 48.007026478377
field stddev 0.47180330793571
field sum 9601.4052956755
field sqrsum 460979.21533304
field min 46.187333998855
field max 49.510985748676
attr interpolationmode  none
attr title  "Latency time of file print, stats"
attr unit  s
statistic UCACnet.owner[662] 	latency:stats
field count 200
field mean 48.066364615251
field stddev 0.51583647205594
field sum 9613.2729230502
field sqrsum 462128.03283116
field min 46.700168208604
field max 50.403611384601
attr interpolationmode  none
attr title  "Latency time of file print, stats"
attr unit  s
statistic UCACnet.owner[663] 	latency:stats
field count 201
field mean 47.980632368863
field stddev 1.0955400613988
field sum 9644.1071061415
field sqrsum 462970.39919094
field min 34.255693964107
field max 49.135080897282
attr interpolationmode  none
attr title  "Latency time of file print, stats"
attr unit  s
statistic UCACnet.owner[664] 	latency:stats
field count 198
field mean 47.886592440072
field stddev 1.3521331838661
field sum 9481.5453031342
field sqrsum 454399.0636702
field min 30.481787415458
field max 49.438362276835
attr interpolationmode  none
attr title  "Latency time of file print, stats"
attr unit  s
statistic UCACnet.owner[665] 	latency:stats
field count 196
field mean 48.0377313543
field stddev 0.51211210075119
field sum 9415.3953454428
field sqrsum 452345.37266563
field min 46.624690492069
field max 50.463797319928
attr interpolationmode  none
attr title  "Latency time of file print, stats"
attr unit  s
statistic UCACnet.owner[666] 	latency:stats
field count 198
field mean 48.042505895254
field stddev 0.51736655343618
field sum 9512.4161672604
field sqrsum 457053.04041939
field min 46.481777959457
field max 50.644932698971
attr interpolationmode  none
attr title  "Latency time of file print, stats"
attr unit  s
statistic UCACnet.owner[667] 	latency:stats
field count 199
field mean 47.988582056788
field stddev 0.67509534105887
field sum 9549.7278293008
field sqrsum 458368.13679286
field min 42.610856685372
field max 49.265471675793
attr interpolationmode  none
attr title  "Latency time of file print, stats"
attr unit  s
statistic UCACnet.owner[668] 	latency:stats
field count 201
field mean 48.028669507509
field stddev 0.55847610678977
field sum 9653.7625710093
field sqrsum 463719.75113933
field min 46.426814771323
field max 50.366914088653
attr interpolationmode  none
attr title  "Latency time of file print, stats"
attr unit  s
statistic UCACnet.owner[669] 	latency:stats
field count 199
field mean 48.034630608313
field stddev 0.50735775594652
field sum 9558.8914910543
field sqrsum 459208.78935246
field min 46.552936635653
field max 49.651882062823
attr interpolationmode  none
attr title  "Latency time of file print, stats"
attr unit  s
statistic UCACnet.owner[670] 	latency:stats
field count 191
field mean 48.067292903429
field stddev 0.52291833011623
field sum 9180.8529445549
field sqrsum 441350.70186943
field min 46.744180255446
field max 50.290938467816
attr interpolationmode  none
attr title  "Latency time of file print, stats"
attr unit  s
statistic UCACnet.owner[671] 	latency:stats
field count 204
field mean 48.032686001353
field stddev 0.51717713379412
field sum 9798.667944276
field sqrsum 470710.63745304
field min 46.881342165197
field max 50.662160199057
attr interpolationmode  none
attr title  "Latency time of file print, stats"
attr unit  s
statistic UCACnet.owner[672] 	latency:stats
field count 199
field mean 47.958762688843
field stddev 0.53924735619859
field sum 9543.7937750797
field sqrsum 457766.11677712
field min 44.597815602067
field max 49.287642341336
attr interpolationmode  none
attr title  "Latency time of file print, stats"
attr unit  s
statistic UCACnet.owner[673] 	latency:stats
field count 196
field mean 47.991008108432
field stddev 0.74881555129645
field sum 9406.2375892527
field sqrsum 451524.16573798
field min 41.262447545955
field max 49.485793270101
attr interpolationmode  none
attr title  "Latency time of file print, stats"
attr unit  s
statistic UCACnet.owner[674] 	latency:stats
field count 202
field mean 48.004619687289
field stddev 0.54142333006231
field sum 9696.9331768323
field sqrsum 465556.51027057
field min 45.858719042724
field max 49.569409341661
attr interpolationmode  none
attr title  "Latency time of file print, stats"
attr unit  s
statistic UCACnet.owner[675] 	latency:stats
field count 199
field mean 47.96030162648
field stddev 1.2415243382975
field sum 9544.1000236696
field sqrsum 458043.10965964
field min 32.276875303778
field max 49.736625726968
attr interpolationmode  none
attr title  "Latency time of file print, stats"
attr unit  s
statistic UCACnet.owner[676] 	latency:stats
field count 198
field mean 48.029220630835
field stddev 0.51536750340325
field sum 9509.7856849053
field sqrsum 456799.91873399
field min 46.806425013189
field max 50.241459944625
attr interpolationmode  none
attr title  "Latency time of file print, stats"
attr unit  s
statistic UCACnet.owner[677] 	latency:stats
field count 199
field mean 47.895297949264
field stddev 2.1530940479242
field sum 9531.1642919035
field sqrsum 457415.84473198
field min 18.507712311518
field max 49.5412784232
attr interpolationmode  none
attr title  "Latency time of file print, stats"
attr unit  s
statistic UCACnet.owner[678] 	latency:stats
field count 197
field mean 47.991272257514
field stddev 0.55872328984002
field sum 9454.2806347303
field sqrsum 453784.14159635
field min 45.079227926133
field max 49.278269546067
attr interpolationmode  none
attr title  "Latency time of file print, stats"
attr unit  s
statistic UCACnet.owner[679] 	latency:stats
field count 202
field mean 48.021792739188
field stddev 0.5061902801779
field sum 9700.402133316
field sqrsum 465882.20268143
field min 46.521219119211
field max 49.478404061481
attr interpolationmode  none
attr title  "Latency time of file print, stats"
attr unit  s
statistic UCACnet.owner[680] 	latency:stats
field count 197
field mean 48.000656288453
field stddev 0.50577689614268
field sum 9456.1292888253
field sqrsum 453950.55062474
field min 46.39142953709
field max 49.479740134706
attr interpolationmode  none
attr title  "Latency time of file print, stats"
attr unit  s
statistic UCACnet.owner[681] 	latency:stats
field count 200
field mean 47.979578828487
field stddev 0.85890172065433
field sum 9595.9157656974
field sqrsum 460554.80163278
field min 38.540536191105
field max 49.683314286035
attr interpolationmode  none
attr title  "Latency time of file print, stats"
attr unit  s
statistic UCACnet.owner[682] 	latency:stats
field count 199
field mean 47.951686062384
field stddev 0.66130293346875
field sum 9542.3855264143
field sqrsum 457660.06471968
field min 42.216384795985
field max 49.150958283612
attr interpolationmode  none
attr title  "Latency time of file print, stats"
attr unit  s
statistic UCACnet.owner[683] 	latency:stats
field count 201
field mean 48.045716969373
field stddev 0.52704054827588
field sum 9657.1891108439
field sqrsum 464042.12908722
field min 46.593972798569
field max 50.386450392683
attr interpolationmode  none
attr title  "Latency time of file print, stats"
attr unit  s
statistic UCACnet.owner[684] 	latency:stats
field count 203
field mean 48.03287007412
field stddev 0.51286565806809
field sum 9750.6726250464
field sqrsum 468405.92363314
field min 46.57261066673
field max 49.443193903706
attr interpolationmode  none
attr title  "Latency time of file print, stats"
attr unit  s
statistic UCACnet.owner[685] 	latency:stats
field count 198
field mean 48.032323113339
field stddev 0.49806084096327
field sum 9510.3999764411
field sqrsum 456855.47333196
field min 46.36146865709
field max 49.554747725456
attr interpolationmode  none
attr title  "Latency time of file print, stats"
attr unit  s
statistic UCACnet.owner[686] 	latency:stats
field count 201
field mean 47.954045985508
field stddev 1.4915041219176
field sum 9638.763243087
field sqrsum 462662.61271155
field min 28.004685909968
field max 49.381846967786
attr interpolationmode  none
attr title  "Latency time of file print, stats"
attr unit  s
statistic UCACnet.owner[687] 	latency:stats
field count 199
field mean 48.069244483317
field stddev 0.514908489941
field sum 9565.7796521801
field sqrsum 459872.29666329
field min 46.673989352146
field max 50.62613156152
attr interpolationmode  none
attr title  "Latency time of file print, stats"
attr unit  s
statistic UCACnet.owner[688] 	latency:stats
field count 201
field mean 48.027751446135
field stddev 0.53455622229649
field sum 9653.5780406731
field sqrsum 463696.79677428
field min 46.451267333994
field max 50.212887914065
attr interpolationmode  none
attr title  "Latency time of file print, stats"
attr unit  s
statistic UCACnet.owner[689] 	latency:stats
field count 200
field mean 48.029201194949
field stddev 0.50904793591869
field sum 9605.8402389899
field sqrsum 461412.4003154
field min 46.455864427676
field max 49.409556668391
attr interpolationmode  none
attr title  "Latency time of file print, stats"
attr unit  s
statistic UCACnet.owner[690] 	latency:stats
field count 202
field mean 47.919858263218
field stddev 1.1722550327523
field sum 9679.81136917
field sqrsum 464131.39937953
field min 33.122277845484
field max 49.05152659531
attr interpolationmode  none
attr title  "Latency time of file print, stats"
attr unit  s
statistic UCACnet.owner[691] 	latency:stats
field count 198
field mean 48.001016241554
field stddev 0.52127118440825
field sum 9504.2012158277
field sqrsum 456264.84648254
field min 46.708021714851
field max 49.516656213994
attr interpolationmode  none
attr title  "Latency time of file print, stats"
attr unit  s
statistic UCACnet.owner[692] 	latency:stats
field count 197
field mean 48.013417517651
field stddev 0.49362626887902
field sum 9458.6432509773
field sqrsum 454189.54627078
field min 46.448296331789
field max 49.627613013597
attr interpolationmode  none
attr title  "Latency time of file print, stats"
attr unit  s
statistic UCACnet.owner[693] 	latency:stats
field count 195
field mean 48.073300278699
field stddev 0.4607113074832
field sum 9374.2935543463
field sqrsum 450694.40639107
field min 46.461694368037
field max 49.261420443395
attr interpolationmode  none
attr title  "Latency time of file print, stats"
attr unit  s
statistic UCACnet.owner[694] 	latency:stats
field count 199
field mean 48.020885884197
field stddev 0.53528870644621
field sum 9556.1562909551
field sqrsum 458951.82447135
field min 45.928553486598
field max 49.356083673579
attr interpolationmode  none
attr title  "Latency time of file print, stats"
attr unit  s
statistic UCACnet.owner[695] 	latency:stats
field count 197
field mean 48.007995296777
field stddev 0.53873154160248
field sum 9457.575073465
field sqrsum 454096.10505391
field min 46.472681805364
field max 49.573588931035
attr interpolationmode  none
attr title  "Latency time of file print, stats"
attr unit  s
statistic UCACnet.owner[696] 	latency:stats
field count 201
field mean 48.029627244827
field stddev 0.53509930519268
field sum 9653.9550762102
field sqrsum 463733.13000196
field min 46.176059161455
field max 50.156391486971
attr interpolationmode  none
attr title  "Latency time of file print, stats"
attr unit  s
statistic UCACnet.owner[697] 	latency:stats
field count 199
field mean 48.00016196232
field stddev 0.4828763011713
field sum 9552.0322305016
field sqrsum 458545.26169877
field min 46.708698969183
field max 49.337263019056
attr interpolationmode  none
attr title  "Latency time of file print, stats"
attr unit  s
statistic UCACnet.owner[698] 	latency:stats
field count 192
field mean 48.02996248013
field stddev 0.47372059276254
field sum 9221.752796185
field sqrsum 442963.303341
field min 46.400102084455
field max 49.058777862488
attr interpolationmode  none
attr title  "Latency time of file print, stats"
attr unit  s
statistic UCACnet.owner[699] 	latency:stats
field count 200
field mean 47.990827289887
field stddev 0.72334026380513
field sum 9598.1654579774
field sqrsum 460728.02179986
field min 41.000105945939
field max 49.287536972325
attr interpolationmode  none
attr title  "Latency time of file print, stats"
attr unit  s
