version 2
run Owner-500-0-20110908-17:23:29-5969
attr configname Owner-500
attr datetime 20110908-17:23:29
attr experiment Owner-500
attr inifile nocrypto.ini
attr iterationvars ""
attr iterationvars2 $repetition=0
attr measurement ""
attr network UCACnet
attr processid 5969
attr repetition 0
attr replication #0
attr resultdir results
attr runnumber 0
attr seedset 0

statistic UCACnet.owner[0] 	latency:stats
field count 209
field mean 31.651859826167
field stddev 0.62694401387725
field sum 6615.2387036689
field sqrsum 209466.36439484
field min 29.714866927088
field max 33.325618252602
attr interpolationmode  none
attr title  "Latency time of file print, stats"
attr unit  s
statistic UCACnet.owner[1] 	latency:stats
field count 204
field mean 31.714220866424
field stddev 0.56883949307164
field sum 6469.7010567505
field sqrsum 205247.2146624
field min 30.173023919438
field max 33.434404621801
attr interpolationmode  none
attr title  "Latency time of file print, stats"
attr unit  s
statistic UCACnet.owner[2] 	latency:stats
field count 208
field mean 31.680958625403
field stddev 0.56348418592037
field sum 6589.6393940838
field sqrsum 208831.81848685
field min 30.190480674591
field max 33.424700926167
attr interpolationmode  none
attr title  "Latency time of file print, stats"
attr unit  s
statistic UCACnet.owner[3] 	latency:stats
field count 208
field mean 31.685793252253
field stddev 0.60746355870296
field sum 6590.6449964687
field sqrsum 208906.20023596
field min 29.81266654573
field max 33.416442689933
attr interpolationmode  none
attr title  "Latency time of file print, stats"
attr unit  s
statistic UCACnet.owner[4] 	latency:stats
field count 202
field mean 31.721942506595
field stddev 0.6190597600647
field sum 6407.8323863322
field sqrsum 203345.92078342
field min 29.978199558983
field max 33.457879411527
attr interpolationmode  none
attr title  "Latency time of file print, stats"
attr unit  s
statistic UCACnet.owner[5] 	latency:stats
field count 210
field mean 31.713840461645
field stddev 0.57687087691435
field sum 6659.9064969455
field sqrsum 211280.76315541
field min 29.763187173864
field max 33.233091861478
attr interpolationmode  none
attr title  "Latency time of file print, stats"
attr unit  s
statistic UCACnet.owner[6] 	latency:stats
field count 210
field mean 31.681866784824
field stddev 0.58929527500121
field sum 6653.1920248131
field sqrsum 210858.1226285
field min 30.051256465774
field max 33.363867362337
attr interpolationmode  none
attr title  "Latency time of file print, stats"
attr unit  s
statistic UCACnet.owner[7] 	latency:stats
field count 212
field mean 31.687129270447
field stddev 0.58560358333575
field sum 6717.6714053348
field sqrsum 212936.08077572
field min 29.663894236004
field max 32.926306211695
attr interpolationmode  none
attr title  "Latency time of file print, stats"
attr unit  s
statistic UCACnet.owner[8] 	latency:stats
field count 209
field mean 31.711562606471
field stddev 0.6327291771685
field sum 6627.7165847525
field sqrsum 210258.52142735
field min 29.677421716201
field max 33.479825397774
attr interpolationmode  none
attr title  "Latency time of file print, stats"
attr unit  s
statistic UCACnet.owner[9] 	latency:stats
field count 211
field mean 31.714583000987
field stddev 0.60132506031037
field sum 6691.7770132083
field sqrsum 212302.85179341
field min 30.127498000927
field max 33.461944242707
attr interpolationmode  none
attr title  "Latency time of file print, stats"
attr unit  s
statistic UCACnet.owner[10] 	latency:stats
field count 212
field mean 31.666351441886
field stddev 0.60511088910976
field sum 6713.2665056799
field sqrsum 212661.9160806
field min 29.871630192454
field max 33.476415500002
attr interpolationmode  none
attr title  "Latency time of file print, stats"
attr unit  s
statistic UCACnet.owner[11] 	latency:stats
field count 204
field mean 31.695014612828
field stddev 0.656491791774
field sum 6465.7829810169
field sqrsum 205020.57530565
field min 29.567727439877
field max 33.255411894734
attr interpolationmode  none
attr title  "Latency time of file print, stats"
attr unit  s
statistic UCACnet.owner[12] 	latency:stats
field count 210
field mean 31.688117795894
field stddev 0.59874433389164
field sum 6654.5047371377
field sqrsum 210943.65539222
field min 29.786269644491
field max 33.291250803472
attr interpolationmode  none
attr title  "Latency time of file print, stats"
attr unit  s
statistic UCACnet.owner[13] 	latency:stats
field count 208
field mean 31.684804146041
field stddev 0.60328306102082
field sum 6590.4392623766
field sqrsum 208892.11500829
field min 29.316417115265
field max 33.175242349442
attr interpolationmode  none
attr title  "Latency time of file print, stats"
attr unit  s
statistic UCACnet.owner[14] 	latency:stats
field count 215
field mean 31.67699731302
field stddev 0.65450574872819
field sum 6810.5544222994
field sqrsum 215829.58697923
field min 29.610146887884
field max 33.465572361525
attr interpolationmode  none
attr title  "Latency time of file print, stats"
attr unit  s
statistic UCACnet.owner[15] 	latency:stats
field count 211
field mean 31.638198563407
field stddev 1.1597854386617
field sum 6675.6598968788
field sqrsum 211488.3248346
field min 17.15816181571
field max 33.420889646532
attr interpolationmode  none
attr title  "Latency time of file print, stats"
attr unit  s
statistic UCACnet.owner[16] 	latency:stats
field count 211
field mean 31.680783016557
field stddev 0.58408170587155
field sum 6684.6452164935
field sqrsum 211846.43644861
field min 30.030885707358
field max 33.254612202873
attr interpolationmode  none
attr title  "Latency time of file print, stats"
attr unit  s
statistic UCACnet.owner[17] 	latency:stats
field count 206
field mean 31.643581730404
field stddev 0.64836467350554
field sum 6518.5778364633
field sqrsum 206357.32776785
field min 28.646447098223
field max 33.135404454624
attr interpolationmode  none
attr title  "Latency time of file print, stats"
attr unit  s
statistic UCACnet.owner[18] 	latency:stats
field count 206
field mean 31.66191671652
field stddev 0.60670375305737
field sum 6522.3548436031
field sqrsum 206585.71418976
field min 29.822683488672
field max 33.406046197375
attr interpolationmode  none
attr title  "Latency time of file print, stats"
attr unit  s
statistic UCACnet.owner[19] 	latency:stats
field count 206
field mean 31.655527316788
field stddev 0.61706427009485
field sum 6521.0386272583
field sqrsum 206504.97390325
field min 29.732303442751
field max 33.457121111556
attr interpolationmode  none
attr title  "Latency time of file print, stats"
attr unit  s
statistic UCACnet.owner[20] 	latency:stats
field count 215
field mean 31.692187176632
field stddev 0.59448662561185
field sum 6813.8202429759
field sqrsum 216020.49719879
field min 30.121454193437
field max 33.094910830136
attr interpolationmode  none
attr title  "Latency time of file print, stats"
attr unit  s
statistic UCACnet.owner[21] 	latency:stats
field count 206
field mean 31.722687620471
field stddev 0.56936424284731
field sum 6534.8736498171
field sqrsum 207370.21143881
field min 29.727251378546
field max 32.91549006827
attr interpolationmode  none
attr title  "Latency time of file print, stats"
attr unit  s
statistic UCACnet.owner[22] 	latency:stats
field count 210
field mean 31.71212992735
field stddev 0.61707157166216
field sum 6659.5472847435
field sqrsum 211268.01121195
field min 29.761763465372
field max 33.074370704658
attr interpolationmode  none
attr title  "Latency time of file print, stats"
attr unit  s
statistic UCACnet.owner[23] 	latency:stats
field count 218
field mean 31.66900953756
field stddev 0.5891506326336
field sum 6903.8440791881
field sqrsum 218713.22435718
field min 29.838135245781
field max 33.22924533679
attr interpolationmode  none
attr title  "Latency time of file print, stats"
attr unit  s
statistic UCACnet.owner[24] 	latency:stats
field count 205
field mean 31.715663906653
field stddev 0.60868604244561
field sum 6501.7111008638
field sqrsum 206281.6658276
field min 29.646433301189
field max 33.398603134867
attr interpolationmode  none
attr title  "Latency time of file print, stats"
attr unit  s
statistic UCACnet.owner[25] 	latency:stats
field count 206
field mean 31.721679334919
field stddev 0.57662544997225
field sum 6534.6659429934
field sqrsum 207358.73947091
field min 29.903489494474
field max 33.412918106283
attr interpolationmode  none
attr title  "Latency time of file print, stats"
attr unit  s
statistic UCACnet.owner[26] 	latency:stats
field count 210
field mean 31.714101017585
field stddev 0.59174173810071
field sum 6659.9612136929
field sqrsum 211287.86578574
field min 29.858391681729
field max 33.473408785051
attr interpolationmode  none
attr title  "Latency time of file print, stats"
attr unit  s
statistic UCACnet.owner[27] 	latency:stats
field count 211
field mean 31.664642250215
field stddev 0.59442754989456
field sum 6681.2395147954
field sqrsum 211633.26128754
field min 29.628109908523
field max 33.154620909259
attr interpolationmode  none
attr title  "Latency time of file print, stats"
attr unit  s
statistic UCACnet.owner[28] 	latency:stats
field count 211
field mean 31.598870677849
field stddev 1.0843154843111
field sum 6667.361713026
field sqrsum 210928.00594695
field min 18.47715495199
field max 33.079355765889
attr interpolationmode  none
attr title  "Latency time of file print, stats"
attr unit  s
statistic UCACnet.owner[29] 	latency:stats
field count 206
field mean 31.639458133335
field stddev 0.63000849563577
field sum 6517.7283754669
field sqrsum 206298.76075447
field min 29.650608462546
field max 33.265915378985
attr interpolationmode  none
attr title  "Latency time of file print, stats"
attr unit  s
statistic UCACnet.owner[30] 	latency:stats
field count 212
field mean 31.645380893237
field stddev 1.0327655326262
field sum 6708.8207493662
field sqrsum 212528.24153832
field min 19.704398245398
field max 33.255805632063
attr interpolationmode  none
attr title  "Latency time of file print, stats"
attr unit  s
statistic UCACnet.owner[31] 	latency:stats
field count 211
field mean 31.682226186283
field stddev 0.56392436697815
field sum 6684.9497253056
field sqrsum 211860.87148631
field min 30.111020056232
field max 33.45988342356
attr interpolationmode  none
attr title  "Latency time of file print, stats"
attr unit  s
statistic UCACnet.owner[32] 	latency:stats
field count 210
field mean 31.581109384362
field stddev 1.4231516429358
field sum 6632.0329707161
field sqrsum 209870.25905403
field min 12.89375262265
field max 32.967503318263
attr interpolationmode  none
attr title  "Latency time of file print, stats"
attr unit  s
statistic UCACnet.owner[33] 	latency:stats
field count 214
field mean 31.699936321851
field stddev 0.60232781582978
field sum 6783.786372876
field sqrsum 215122.87218512
field min 29.73944294358
field max 33.156560059702
attr interpolationmode  none
attr title  "Latency time of file print, stats"
attr unit  s
statistic UCACnet.owner[34] 	latency:stats
field count 205
field mean 31.711767172437
field stddev 0.57014341540643
field sum 6500.9122703496
field sqrsum 206221.72928265
field min 30.131574691552
field max 33.142866760211
attr interpolationmode  none
attr title  "Latency time of file print, stats"
attr unit  s
statistic UCACnet.owner[35] 	latency:stats
field count 209
field mean 31.679376798197
field stddev 0.60462165693975
field sum 6620.9897508232
field sqrsum 209824.86710172
field min 29.847888090671
field max 33.049227629791
attr interpolationmode  none
attr title  "Latency time of file print, stats"
attr unit  s
statistic UCACnet.owner[36] 	latency:stats
field count 210
field mean 31.703893011314
field stddev 0.63042810928679
field sum 6657.8175323759
field sqrsum 211161.7996119
field min 29.9693106417
field max 33.140925558453
attr interpolationmode  none
attr title  "Latency time of file print, stats"
attr unit  s
statistic UCACnet.owner[37] 	latency:stats
field count 208
field mean 31.615481314776
field stddev 0.8186095601462
field sum 6576.0201134734
field sqrsum 208042.75619678
field min 23.503699969991
field max 33.322073981335
attr interpolationmode  none
attr title  "Latency time of file print, stats"
attr unit  s
statistic UCACnet.owner[38] 	latency:stats
field count 209
field mean 31.725862314288
field stddev 0.56568236265048
field sum 6630.7052236863
field sqrsum 210431.40025267
field min 30.026325357783
field max 33.026279575797
attr interpolationmode  none
attr title  "Latency time of file print, stats"
attr unit  s
statistic UCACnet.owner[39] 	latency:stats
field count 206
field mean 31.710580887054
field stddev 0.58104007665561
field sum 6532.3796627331
field sqrsum 207214.76323203
field min 30.300843088819
field max 33.423033275943
attr interpolationmode  none
attr title  "Latency time of file print, stats"
attr unit  s
statistic UCACnet.owner[40] 	latency:stats
field count 211
field mean 31.677761827251
field stddev 0.56569345385923
field sum 6684.00774555
field sqrsum 211801.60732262
field min 30.013749712917
field max 33.441781937233
attr interpolationmode  none
attr title  "Latency time of file print, stats"
attr unit  s
statistic UCACnet.owner[41] 	latency:stats
field count 211
field mean 31.702014671961
field stddev 0.59971211679207
field sum 6689.1250957838
field sqrsum 212134.26939996
field min 29.617561915805
field max 33.237805675657
attr interpolationmode  none
attr title  "Latency time of file print, stats"
attr unit  s
statistic UCACnet.owner[42] 	latency:stats
field count 209
field mean 31.720064780289
field stddev 0.57663399649091
field sum 6629.4935390804
field sqrsum 210357.12592745
field min 30.010474800314
field max 32.823812423964
attr interpolationmode  none
attr title  "Latency time of file print, stats"
attr unit  s
statistic UCACnet.owner[43] 	latency:stats
field count 202
field mean 31.713634629796
field stddev 0.6334878401211
field sum 6406.1541952188
field sqrsum 203243.09620487
field min 29.576614194366
field max 33.355841140458
attr interpolationmode  none
attr title  "Latency time of file print, stats"
attr unit  s
statistic UCACnet.owner[44] 	latency:stats
field count 209
field mean 31.703015663982
field stddev 0.57469466934925
field sum 6625.9302737723
field sqrsum 210130.66824216
field min 29.808780447518
field max 33.232373089289
attr interpolationmode  none
attr title  "Latency time of file print, stats"
attr unit  s
statistic UCACnet.owner[45] 	latency:stats
field count 210
field mean 31.704045632212
field stddev 0.63870003637089
field sum 6657.8495827645
field sqrsum 211166.02597129
field min 29.912344546875
field max 33.495125123413
attr interpolationmode  none
attr title  "Latency time of file print, stats"
attr unit  s
statistic UCACnet.owner[46] 	latency:stats
field count 208
field mean 31.685568673671
field stddev 0.61083700538215
field sum 6590.5982841235
field sqrsum 208904.09075453
field min 29.9612573599
field max 33.351749648403
attr interpolationmode  none
attr title  "Latency time of file print, stats"
attr unit  s
statistic UCACnet.owner[47] 	latency:stats
field count 203
field mean 31.682554613328
field stddev 0.60298583706892
field sum 6431.5585865056
field sqrsum 203841.65173356
field min 30.06068816885
field max 33.454619089538
attr interpolationmode  none
attr title  "Latency time of file print, stats"
attr unit  s
statistic UCACnet.owner[48] 	latency:stats
field count 205
field mean 31.651717883046
field stddev 0.89200522933101
field sum 6488.6021660244
field sqrsum 205537.72257347
field min 22.08326441226
field max 33.160713243617
attr interpolationmode  none
attr title  "Latency time of file print, stats"
attr unit  s
statistic UCACnet.owner[49] 	latency:stats
field count 205
field mean 31.695633689322
field stddev 0.60541002990612
field sum 6497.6049063111
field sqrsum 206020.47531446
field min 29.629080177771
field max 33.333731484404
attr interpolationmode  none
attr title  "Latency time of file print, stats"
attr unit  s
statistic UCACnet.owner[50] 	latency:stats
field count 212
field mean 31.682464904804
field stddev 0.61714095166963
field sum 6716.6825598185
field sqrsum 212881.4215615
field min 29.85637049871
field max 33.463689763148
attr interpolationmode  none
attr title  "Latency time of file print, stats"
attr unit  s
statistic UCACnet.owner[51] 	latency:stats
field count 208
field mean 31.678609208838
field stddev 0.58572774585285
field sum 6589.1507154384
field sqrsum 208806.14746991
field min 29.680277361817
field max 33.334796556219
attr interpolationmode  none
attr title  "Latency time of file print, stats"
attr unit  s
statistic UCACnet.owner[52] 	latency:stats
field count 211
field mean 31.67834019093
field stddev 0.79073274855582
field sum 6684.1297802862
field sqrsum 211873.44129896
field min 23.69071170164
field max 33.272661565161
attr interpolationmode  none
attr title  "Latency time of file print, stats"
attr unit  s
statistic UCACnet.owner[53] 	latency:stats
field count 213
field mean 31.678314385485
field stddev 0.59365360443296
field sum 6747.4809641084
field sqrsum 213823.53730674
field min 29.747149574671
field max 33.400637167917
attr interpolationmode  none
attr title  "Latency time of file print, stats"
attr unit  s
statistic UCACnet.owner[54] 	latency:stats
field count 206
field mean 31.692019766487
field stddev 0.60360269513574
field sum 6528.5560718963
field sqrsum 206977.81700094
field min 29.689439015941
field max 33.382321956201
attr interpolationmode  none
attr title  "Latency time of file print, stats"
attr unit  s
statistic UCACnet.owner[55] 	latency:stats
field count 212
field mean 31.656864393826
field stddev 0.62617107567324
field sum 6711.255251491
field sqrsum 212540.02844438
field min 30.111478925015
field max 33.42023632379
attr interpolationmode  none
attr title  "Latency time of file print, stats"
attr unit  s
statistic UCACnet.owner[56] 	latency:stats
field count 214
field mean 31.642657106275
field stddev 0.61650990515704
field sum 6771.5286207428
field sqrsum 214350.11622214
field min 30.025776629715
field max 33.307240452849
attr interpolationmode  none
attr title  "Latency time of file print, stats"
attr unit  s
statistic UCACnet.owner[57] 	latency:stats
field count 213
field mean 31.629500797429
field stddev 0.93783060613339
field sum 6737.0836698524
field sqrsum 213277.05287205
field min 21.264546900314
field max 33.477848994823
attr interpolationmode  none
attr title  "Latency time of file print, stats"
attr unit  s
statistic UCACnet.owner[58] 	latency:stats
field count 207
field mean 31.684575390917
field stddev 0.57538259036445
field sum 6558.7071059198
field sqrsum 207878.04918027
field min 29.788097551962
field max 33.407172235047
attr interpolationmode  none
attr title  "Latency time of file print, stats"
attr unit  s
statistic UCACnet.owner[59] 	latency:stats
field count 209
field mean 31.685030159255
field stddev 0.61897052341172
field sum 6622.1713032843
field sqrsum 209903.38736215
field min 29.907801271408
field max 33.009064008856
attr interpolationmode  none
attr title  "Latency time of file print, stats"
attr unit  s
statistic UCACnet.owner[60] 	latency:stats
field count 210
field mean 31.634687808291
field stddev 0.67135702557743
field sum 6643.2844397411
field sqrsum 210252.42980635
field min 28.403204985115
field max 33.446157947852
attr interpolationmode  none
attr title  "Latency time of file print, stats"
attr unit  s
statistic UCACnet.owner[61] 	latency:stats
field count 205
field mean 31.616295031701
field stddev 0.71492999798577
field sum 6481.3404814988
field sqrsum 205020.24234399
field min 25.773975686336
field max 33.249182641838
attr interpolationmode  none
attr title  "Latency time of file print, stats"
attr unit  s
statistic UCACnet.owner[62] 	latency:stats
field count 214
field mean 31.688057304441
field stddev 0.60893936681188
field sum 6781.2442631504
field sqrsum 214963.43872959
field min 29.594195923389
field max 32.956679289322
attr interpolationmode  none
attr title  "Latency time of file print, stats"
attr unit  s
statistic UCACnet.owner[63] 	latency:stats
field count 208
field mean 31.693471095468
field stddev 0.60199621599607
field sum 6592.2419878574
field sqrsum 209006.04758141
field min 29.566053579303
field max 33.275106660401
attr interpolationmode  none
attr title  "Latency time of file print, stats"
attr unit  s
statistic UCACnet.owner[64] 	latency:stats
field count 213
field mean 31.686577355319
field stddev 0.60476294198034
field sum 6749.2409766829
field sqrsum 213937.88279914
field min 29.993746067453
field max 33.250443255908
attr interpolationmode  none
attr title  "Latency time of file print, stats"
attr unit  s
statistic UCACnet.owner[65] 	latency:stats
field count 206
field mean 31.594784207628
field stddev 0.69028057613186
field sum 6508.5255467714
field sqrsum 205733.14005121
field min 26.929523599275
field max 33.144898686502
attr interpolationmode  none
attr title  "Latency time of file print, stats"
attr unit  s
statistic UCACnet.owner[66] 	latency:stats
field count 211
field mean 31.693401704054
field stddev 0.608988519131
field sum 6687.3077595555
field sqrsum 212021.41321568
field min 30.013556298077
field max 33.268661450518
attr interpolationmode  none
attr title  "Latency time of file print, stats"
attr unit  s
statistic UCACnet.owner[67] 	latency:stats
field count 212
field mean 31.635020672217
field stddev 0.82706340212698
field sum 6706.6243825101
field sqrsum 212308.53212831
field min 23.127228233718
field max 33.401726636617
attr interpolationmode  none
attr title  "Latency time of file print, stats"
attr unit  s
statistic UCACnet.owner[68] 	latency:stats
field count 213
field mean 31.604253991035
field stddev 1.4262697965768
field sum 6731.7061000905
field sqrsum 213181.80943318
field min 12.48432281463
field max 32.998664265495
attr interpolationmode  none
attr title  "Latency time of file print, stats"
attr unit  s
statistic UCACnet.owner[69] 	latency:stats
field count 212
field mean 31.670475273347
field stddev 0.62145261907116
field sum 6714.1407579497
field sqrsum 212721.5177649
field min 29.684240160745
field max 33.460740931361
attr interpolationmode  none
attr title  "Latency time of file print, stats"
attr unit  s
statistic UCACnet.owner[70] 	latency:stats
field count 206
field mean 31.750480214822
field stddev 0.58881833781079
field sum 6540.5989242533
field sqrsum 207738.23167975
field min 30.056008686944
field max 33.450199115983
attr interpolationmode  none
attr title  "Latency time of file print, stats"
attr unit  s
statistic UCACnet.owner[71] 	latency:stats
field count 217
field mean 31.6586293847
field stddev 0.78495927639318
field sum 6869.9225764798
field sqrsum 217625.42354053
field min 24.180643612181
field max 33.155820791419
attr interpolationmode  none
attr title  "Latency time of file print, stats"
attr unit  s
statistic UCACnet.owner[72] 	latency:stats
field count 208
field mean 31.726131059787
field stddev 0.59088135694473
field sum 6599.0352604358
field sqrsum 209434.12968179
field min 30.013856836787
field max 33.420041734891
attr interpolationmode  none
attr title  "Latency time of file print, stats"
attr unit  s
statistic UCACnet.owner[73] 	latency:stats
field count 209
field mean 31.678939601393
field stddev 0.65751714722788
field sum 6620.8983766911
field sqrsum 209832.96417233
field min 27.189589185892
field max 33.039676451246
attr interpolationmode  none
attr title  "Latency time of file print, stats"
attr unit  s
statistic UCACnet.owner[74] 	latency:stats
field count 216
field mean 31.679519747643
field stddev 0.57951891811147
field sum 6842.776265491
field sqrsum 216848.07189926
field min 29.586042941891
field max 33.430528732958
attr interpolationmode  none
attr title  "Latency time of file print, stats"
attr unit  s
statistic UCACnet.owner[75] 	latency:stats
field count 212
field mean 31.672140439429
field stddev 0.6226542857258
field sum 6714.4937731589
field sqrsum 212744.19411702
field min 29.705959548987
field max 33.126814462115
attr interpolationmode  none
attr title  "Latency time of file print, stats"
attr unit  s
statistic UCACnet.owner[76] 	latency:stats
field count 205
field mean 31.666148135243
field stddev 0.59697295141855
field sum 6491.5603677249
field sqrsum 205635.41308102
field min 29.726377696141
field max 32.886423366896
attr interpolationmode  none
attr title  "Latency time of file print, stats"
attr unit  s
statistic UCACnet.owner[77] 	latency:stats
field count 207
field mean 31.67551048866
field stddev 0.57253794961689
field sum 6556.8306711526
field sqrsum 207758.48543543
field min 30.261087515885
field max 33.188025908316
attr interpolationmode  none
attr title  "Latency time of file print, stats"
attr unit  s
statistic UCACnet.owner[78] 	latency:stats
field count 212
field mean 31.706424942546
field stddev 0.6302728445572
field sum 6721.7620878197
field sqrsum 213206.86357327
field min 30.128053310192
field max 33.51061895964
attr interpolationmode  none
attr title  "Latency time of file print, stats"
attr unit  s
statistic UCACnet.owner[79] 	latency:stats
field count 208
field mean 31.67777818363
field stddev 0.55998267023118
field sum 6588.9778621951
field sqrsum 208789.0903578
field min 29.949710730375
field max 33.085816775352
attr interpolationmode  none
attr title  "Latency time of file print, stats"
attr unit  s
statistic UCACnet.owner[80] 	latency:stats
field count 210
field mean 31.684054662236
field stddev 0.57130762825127
field sum 6653.6514790696
field sqrsum 210882.87317918
field min 30.180984777352
field max 33.212953126227
attr interpolationmode  none
attr title  "Latency time of file print, stats"
attr unit  s
statistic UCACnet.owner[81] 	latency:stats
field count 216
field mean 31.639403826082
field stddev 0.62675397745863
field sum 6834.1112264336
field sqrsum 216311.66130337
field min 29.717756036647
field max 33.443062671673
attr interpolationmode  none
attr title  "Latency time of file print, stats"
attr unit  s
statistic UCACnet.owner[82] 	latency:stats
field count 212
field mean 31.676224150874
field stddev 0.53925179833489
field sum 6715.3595199853
field sqrsum 212778.59062668
field min 30.320142298599
field max 33.095527757143
attr interpolationmode  none
attr title  "Latency time of file print, stats"
attr unit  s
statistic UCACnet.owner[83] 	latency:stats
field count 205
field mean 31.634812187746
field stddev 0.59209345825645
field sum 6485.1364984878
field sqrsum 205227.59237287
field min 29.508356564672
field max 33.418959040084
attr interpolationmode  none
attr title  "Latency time of file print, stats"
attr unit  s
statistic UCACnet.owner[84] 	latency:stats
field count 205
field mean 31.716440178777
field stddev 0.57674254698072
field sum 6501.8702366493
field sqrsum 206284.03533182
field min 29.710646486681
field max 33.46893051207
attr interpolationmode  none
attr title  "Latency time of file print, stats"
attr unit  s
statistic UCACnet.owner[85] 	latency:stats
field count 205
field mean 31.662629855103
field stddev 0.99129100026394
field sum 6490.839120296
field sqrsum 205717.49871578
field min 20.656396248889
field max 33.383539242713
attr interpolationmode  none
attr title  "Latency time of file print, stats"
attr unit  s
statistic UCACnet.owner[86] 	latency:stats
field count 209
field mean 31.604143269492
field stddev 1.1303538299554
field sum 6605.2659433239
field sqrsum 209019.53276033
field min 17.474855601977
field max 33.342863342409
attr interpolationmode  none
attr title  "Latency time of file print, stats"
attr unit  s
statistic UCACnet.owner[87] 	latency:stats
field count 205
field mean 31.624565907056
field stddev 0.6068514408771
field sum 6483.0360109465
field sqrsum 205098.32641494
field min 29.844079206623
field max 33.237053354022
attr interpolationmode  none
attr title  "Latency time of file print, stats"
attr unit  s
statistic UCACnet.owner[88] 	latency:stats
field count 210
field mean 31.632289986701
field stddev 0.6085767812834
field sum 6642.7808972073
field sqrsum 210203.77808961
field min 29.634059161455
field max 33.464346585344
attr interpolationmode  none
attr title  "Latency time of file print, stats"
attr unit  s
statistic UCACnet.owner[89] 	latency:stats
field count 207
field mean 31.724324441173
field stddev 0.62819305764529
field sum 6566.9351593229
field sqrsum 208412.87464115
field min 29.961407444513
field max 33.407667191765
attr interpolationmode  none
attr title  "Latency time of file print, stats"
attr unit  s
statistic UCACnet.owner[90] 	latency:stats
field count 209
field mean 31.711520994355
field stddev 0.6234673709599
field sum 6627.7078878201
field sqrsum 210255.54983409
field min 30.110640829095
field max 33.436034049768
attr interpolationmode  none
attr title  "Latency time of file print, stats"
attr unit  s
statistic UCACnet.owner[91] 	latency:stats
field count 208
field mean 31.674418698827
field stddev 0.71413924807454
field sum 6588.279089356
field sqrsum 208785.47931817
field min 25.171747846462
field max 32.981190985675
attr interpolationmode  none
attr title  "Latency time of file print, stats"
attr unit  s
statistic UCACnet.owner[92] 	latency:stats
field count 210
field mean 31.678467092872
field stddev 0.66720475807836
field sum 6652.4780895031
field sqrsum 210833.34714192
field min 26.701941445813
field max 33.239747308053
attr interpolationmode  none
attr title  "Latency time of file print, stats"
attr unit  s
statistic UCACnet.owner[93] 	latency:stats
field count 200
field mean 31.71669507994
field stddev 0.57253462173625
field sum 6343.3390159879
field sqrsum 201254.9807415
field min 29.945712667668
field max 33.18167377983
attr interpolationmode  none
attr title  "Latency time of file print, stats"
attr unit  s
statistic UCACnet.owner[94] 	latency:stats
field count 210
field mean 31.632745644691
field stddev 0.86094208056067
field sum 6642.876585385
field sqrsum 210287.34061917
field min 22.685721622356
field max 33.164808182094
attr interpolationmode  none
attr title  "Latency time of file print, stats"
attr unit  s
statistic UCACnet.owner[95] 	latency:stats
field count 208
field mean 31.725052446398
field stddev 0.56297605504885
field sum 6598.8109088507
field sqrsum 209413.22916913
field min 29.868168058472
field max 33.141499994706
attr interpolationmode  none
attr title  "Latency time of file print, stats"
attr unit  s
statistic UCACnet.owner[96] 	latency:stats
field count 206
field mean 31.686026483081
field stddev 0.60152267846373
field sum 6527.3214555146
field sqrsum 206899.05555722
field min 29.51841656611
field max 33.450427258089
attr interpolationmode  none
attr title  "Latency time of file print, stats"
attr unit  s
statistic UCACnet.owner[97] 	latency:stats
field count 212
field mean 31.678813299756
field stddev 0.59700626074619
field sum 6715.9084195482
field sqrsum 212827.21283743
field min 29.699125633178
field max 33.445392908926
attr interpolationmode  none
attr title  "Latency time of file print, stats"
attr unit  s
statistic UCACnet.owner[98] 	latency:stats
field count 214
field mean 31.668943981562
field stddev 0.56661841671242
field sum 6777.1540120543
field sqrsum 214693.69578179
field min 30.171172542708
field max 33.427676719035
attr interpolationmode  none
attr title  "Latency time of file print, stats"
attr unit  s
statistic UCACnet.owner[99] 	latency:stats
field count 209
field mean 31.696093739178
field stddev 0.58441673747576
field sum 6624.4835914881
field sqrsum 210041.29381744
field min 29.9528829336
field max 32.989942835027
attr interpolationmode  none
attr title  "Latency time of file print, stats"
attr unit  s
statistic UCACnet.owner[100] 	latency:stats
field count 215
field mean 31.688896181037
field stddev 0.61332675158511
field sum 6813.1126789229
field sqrsum 215980.52066879
field min 30.09748821143
field max 33.307730571364
attr interpolationmode  none
attr title  "Latency time of file print, stats"
attr unit  s
statistic UCACnet.owner[101] 	latency:stats
field count 209
field mean 31.610650949082
field stddev 1.2991699043612
field sum 6606.6260483581
field sqrsum 209190.82119336
field min 14.96617694251
field max 33.109652667427
attr interpolationmode  none
attr title  "Latency time of file print, stats"
attr unit  s
statistic UCACnet.owner[102] 	latency:stats
field count 211
field mean 31.702100853181
field stddev 0.60688704646804
field sum 6689.1432800212
field sqrsum 212137.24038092
field min 29.786097040343
field max 33.307539353212
attr interpolationmode  none
attr title  "Latency time of file print, stats"
attr unit  s
statistic UCACnet.owner[103] 	latency:stats
field count 212
field mean 31.668230333856
field stddev 0.5923301442369
field sum 6713.6648307775
field sqrsum 212683.91465033
field min 29.7877532576
field max 33.455298454975
attr interpolationmode  none
attr title  "Latency time of file print, stats"
attr unit  s
statistic UCACnet.owner[104] 	latency:stats
field count 202
field mean 31.681855322778
field stddev 0.59842354064592
field sum 6399.7347752012
field sqrsum 202827.45150961
field min 29.897311788081
field max 33.209902561899
attr interpolationmode  none
attr title  "Latency time of file print, stats"
attr unit  s
statistic UCACnet.owner[105] 	latency:stats
field count 208
field mean 31.704847194932
field stddev 0.60802411792601
field sum 6594.6082165458
field sqrsum 209157.57233492
field min 30.15669016899
field max 33.278940095439
attr interpolationmode  none
attr title  "Latency time of file print, stats"
attr unit  s
statistic UCACnet.owner[106] 	latency:stats
field count 205
field mean 31.578225015096
field stddev 0.93925016809758
field sum 6473.5361280946
field sqrsum 204602.74743549
field min 21.22765742508
field max 33.443662119205
attr interpolationmode  none
attr title  "Latency time of file print, stats"
attr unit  s
statistic UCACnet.owner[107] 	latency:stats
field count 204
field mean 31.712993902415
field stddev 0.56329252902831
field sum 6469.4507560926
field sqrsum 205230.06397001
field min 30.090964791455
field max 33.394514318311
attr interpolationmode  none
attr title  "Latency time of file print, stats"
attr unit  s
statistic UCACnet.owner[108] 	latency:stats
field count 202
field mean 31.691920652077
field stddev 0.68580185555011
field sum 6401.7679717196
field sqrsum 202978.85775395
field min 26.624993318885
field max 33.393804368514
attr interpolationmode  none
attr title  "Latency time of file print, stats"
attr unit  s
statistic UCACnet.owner[109] 	latency:stats
field count 211
field mean 31.701214674871
field stddev 0.59549196144067
field sum 6688.9562963978
field sqrsum 212122.50774493
field min 29.752007892687
field max 33.453816052439
attr interpolationmode  none
attr title  "Latency time of file print, stats"
attr unit  s
statistic UCACnet.owner[110] 	latency:stats
field count 210
field mean 31.647105347673
field stddev 0.76939058747501
field sum 6645.8921230113
field sqrsum 210446.96817831
field min 24.684873052384
field max 33.18126300361
attr interpolationmode  none
attr title  "Latency time of file print, stats"
attr unit  s
statistic UCACnet.owner[111] 	latency:stats
field count 206
field mean 31.677402915787
field stddev 0.55530698297857
field sum 6525.5450006521
field sqrsum 206775.53322905
field min 30.13300006359
field max 32.968563434572
attr interpolationmode  none
attr title  "Latency time of file print, stats"
attr unit  s
statistic UCACnet.owner[112] 	latency:stats
field count 208
field mean 31.688957799835
field stddev 0.58538938143003
field sum 6591.3032223657
field sqrsum 208942.46457014
field min 29.606732977013
field max 33.384581355699
attr interpolationmode  none
attr title  "Latency time of file print, stats"
attr unit  s
statistic UCACnet.owner[113] 	latency:stats
field count 208
field mean 31.659029025036
field stddev 0.59203493288831
field sum 6585.0780372075
field sqrsum 208549.73132196
field min 29.729338563486
field max 33.330849970383
attr interpolationmode  none
attr title  "Latency time of file print, stats"
attr unit  s
statistic UCACnet.owner[114] 	latency:stats
field count 208
field mean 31.650823830844
field stddev 0.59917069967296
field sum 6583.3713568155
field sqrsum 208443.44117175
field min 28.083203173968
field max 33.047111345549
attr interpolationmode  none
attr title  "Latency time of file print, stats"
attr unit  s
statistic UCACnet.owner[115] 	latency:stats
field count 206
field mean 31.694051069892
field stddev 0.5903898206646
field sum 6528.9745203977
field sqrsum 207001.10671228
field min 29.999490723958
field max 33.357373436832
attr interpolationmode  none
attr title  "Latency time of file print, stats"
attr unit  s
statistic UCACnet.owner[116] 	latency:stats
field count 209
field mean 31.661268320954
field stddev 0.60451382568352
field sum 6617.2050790794
field sqrsum 209585.11643233
field min 30.155917448169
field max 33.203340793593
attr interpolationmode  none
attr title  "Latency time of file print, stats"
attr unit  s
statistic UCACnet.owner[117] 	latency:stats
field count 215
field mean 31.648288431708
field stddev 0.64135339856805
field sum 6804.3820128173
field sqrsum 215435.07005609
field min 29.419747558279
field max 33.253616749004
attr interpolationmode  none
attr title  "Latency time of file print, stats"
attr unit  s
statistic UCACnet.owner[118] 	latency:stats
field count 204
field mean 31.670120182138
field stddev 0.66114322142915
field sum 6460.7045171562
field sqrsum 204700.02192255
field min 27.893238421851
field max 33.315527307624
attr interpolationmode  none
attr title  "Latency time of file print, stats"
attr unit  s
statistic UCACnet.owner[119] 	latency:stats
field count 206
field mean 31.705680439258
field stddev 0.6194630014964
field sum 6531.3701704872
field sqrsum 207160.20101007
field min 29.64123743237
field max 33.471904195758
attr interpolationmode  none
attr title  "Latency time of file print, stats"
attr unit  s
statistic UCACnet.owner[120] 	latency:stats
field count 213
field mean 31.659504366617
field stddev 0.76662781917177
field sum 6743.4744300894
field sqrsum 213619.65442677
field min 24.656733945179
field max 33.079564913068
attr interpolationmode  none
attr title  "Latency time of file print, stats"
attr unit  s
statistic UCACnet.owner[121] 	latency:stats
field count 208
field mean 31.686934888368
field stddev 0.61855091548717
field sum 6590.8824567805
field sqrsum 208924.06254854
field min 30.172996207416
field max 33.45095863357
attr interpolationmode  none
attr title  "Latency time of file print, stats"
attr unit  s
statistic UCACnet.owner[122] 	latency:stats
field count 209
field mean 31.647776264971
field stddev 0.90505755656941
field sum 6614.3852393788
field sqrsum 209500.96305577
field min 21.648454408716
field max 33.353286565744
attr interpolationmode  none
attr title  "Latency time of file print, stats"
attr unit  s
statistic UCACnet.owner[123] 	latency:stats
field count 204
field mean 31.701020034145
field stddev 0.58392545886266
field sum 6467.0080869656
field sqrsum 205079.969621
field min 29.792503468229
field max 33.409899962203
attr interpolationmode  none
attr title  "Latency time of file print, stats"
attr unit  s
statistic UCACnet.owner[124] 	latency:stats
field count 210
field mean 31.690391147989
field stddev 0.55300520585091
field sum 6654.9821410778
field sqrsum 210962.902418
field min 30.04440694875
field max 33.453286535145
attr interpolationmode  none
attr title  "Latency time of file print, stats"
attr unit  s
statistic UCACnet.owner[125] 	latency:stats
field count 211
field mean 31.624565711818
field stddev 0.59464412570245
field sum 6672.7833651936
field sqrsum 211098.1323569
field min 29.678450072898
field max 33.267038377665
attr interpolationmode  none
attr title  "Latency time of file print, stats"
attr unit  s
statistic UCACnet.owner[126] 	latency:stats
field count 206
field mean 31.671661116915
field stddev 0.78902125009008
field sum 6524.3621900844
field sqrsum 206765.01196765
field min 23.356885814119
field max 32.862995608736
attr interpolationmode  none
attr title  "Latency time of file print, stats"
attr unit  s
statistic UCACnet.owner[127] 	latency:stats
field count 206
field mean 31.674263349571
field stddev 0.57034336719529
field sum 6524.8982500117
field sqrsum 206738.03026911
field min 30.249165560641
field max 33.10771013619
attr interpolationmode  none
attr title  "Latency time of file print, stats"
attr unit  s
statistic UCACnet.owner[128] 	latency:stats
field count 207
field mean 31.613587161635
field stddev 0.74611889915401
field sum 6544.0125424584
field sqrsum 206994.38974065
field min 26.135202541568
field max 33.437141075135
attr interpolationmode  none
attr title  "Latency time of file print, stats"
attr unit  s
statistic UCACnet.owner[129] 	latency:stats
field count 209
field mean 31.643725863788
field stddev 0.60573041689531
field sum 6613.5387055318
field sqrsum 209353.32292969
field min 29.617755384015
field max 33.178207436254
attr interpolationmode  none
attr title  "Latency time of file print, stats"
attr unit  s
statistic UCACnet.owner[130] 	latency:stats
field count 207
field mean 31.705873701134
field stddev 0.6042385290269
field sum 6563.1158561347
field sqrsum 208164.5338857
field min 29.453680144575
field max 33.457949094453
attr interpolationmode  none
attr title  "Latency time of file print, stats"
attr unit  s
statistic UCACnet.owner[131] 	latency:stats
field count 210
field mean 31.717804834732
field stddev 0.627066985567
field sum 6660.7390152936
field sqrsum 211346.20166008
field min 29.711302807852
field max 33.505314697858
attr interpolationmode  none
attr title  "Latency time of file print, stats"
attr unit  s
statistic UCACnet.owner[132] 	latency:stats
field count 213
field mean 31.69477304481
field stddev 0.59381480244679
field sum 6750.9866585445
field sqrsum 214045.74456727
field min 29.674516124023
field max 32.966003904957
attr interpolationmode  none
attr title  "Latency time of file print, stats"
attr unit  s
statistic UCACnet.owner[133] 	latency:stats
field count 208
field mean 31.610639144414
field stddev 1.5062094238187
field sum 6575.012942038
field sqrsum 208309.97551409
field min 11.837362722332
field max 33.189032696096
attr interpolationmode  none
attr title  "Latency time of file print, stats"
attr unit  s
statistic UCACnet.owner[134] 	latency:stats
field count 205
field mean 31.648727757276
field stddev 0.98938459737748
field sum 6487.9891902417
field sqrsum 205536.29547794
field min 20.610559691391
field max 33.009389629967
attr interpolationmode  none
attr title  "Latency time of file print, stats"
attr unit  s
statistic UCACnet.owner[135] 	latency:stats
field count 206
field mean 31.711485368001
field stddev 0.58636354252646
field sum 6532.5659858081
field sqrsum 207227.85422627
field min 30.092367920942
field max 33.404989165077
attr interpolationmode  none
attr title  "Latency time of file print, stats"
attr unit  s
statistic UCACnet.owner[136] 	latency:stats
field count 211
field mean 31.700192816275
field stddev 0.59252377476013
field sum 6688.7406842341
field sqrsum 212108.09711725
field min 30.008921139392
field max 33.209849436696
attr interpolationmode  none
attr title  "Latency time of file print, stats"
attr unit  s
statistic UCACnet.owner[137] 	latency:stats
field count 211
field mean 31.678027711243
field stddev 0.62002207069544
field sum 6684.0638470722
field sqrsum 211818.68951858
field min 30.028488530996
field max 33.405864849101
attr interpolationmode  none
attr title  "Latency time of file print, stats"
attr unit  s
statistic UCACnet.owner[138] 	latency:stats
field count 206
field mean 31.615305829884
field stddev 0.98575595266914
field sum 6512.7530009561
field sqrsum 206101.87945336
field min 20.473660753551
field max 32.978856064831
attr interpolationmode  none
attr title  "Latency time of file print, stats"
attr unit  s
statistic UCACnet.owner[139] 	latency:stats
field count 208
field mean 31.736486070495
field stddev 0.59971675068507
field sum 6601.1891026629
field sqrsum 209572.99566284
field min 29.583431818767
field max 33.098200576289
attr interpolationmode  none
attr title  "Latency time of file print, stats"
attr unit  s
statistic UCACnet.owner[140] 	latency:stats
field count 204
field mean 31.670227857338
field stddev 0.55700043321341
field sum 6460.7264828969
field sqrsum 204675.66048225
field min 29.725850518224
field max 33.245755232491
attr interpolationmode  none
attr title  "Latency time of file print, stats"
attr unit  s
statistic UCACnet.owner[141] 	latency:stats
field count 205
field mean 31.699276255926
field stddev 0.55574341998811
field sum 6498.3516324648
field sqrsum 206056.04915841
field min 29.979575070554
field max 32.944698498256
attr interpolationmode  none
attr title  "Latency time of file print, stats"
attr unit  s
statistic UCACnet.owner[142] 	latency:stats
field count 205
field mean 31.677972400631
field stddev 0.6621947178603
field sum 6493.9843421294
field sqrsum 205805.71113636
field min 29.692607560896
field max 33.2500668853
attr interpolationmode  none
attr title  "Latency time of file print, stats"
attr unit  s
statistic UCACnet.owner[143] 	latency:stats
field count 208
field mean 31.670267633416
field stddev 0.63010069975271
field sum 6587.4156677506
field sqrsum 208707.40177683
field min 29.676154765569
field max 33.429536972325
attr interpolationmode  none
attr title  "Latency time of file print, stats"
attr unit  s
statistic UCACnet.owner[144] 	latency:stats
field count 199
field mean 31.667941625076
field stddev 0.59257472734478
field sum 6301.9203833901
field sqrsum 199638.37349896
field min 29.774589649904
field max 32.983927613166
attr interpolationmode  none
attr title  "Latency time of file print, stats"
attr unit  s
statistic UCACnet.owner[145] 	latency:stats
field count 214
field mean 31.630095426981
field stddev 1.1624428602598
field sum 6768.8404213739
field sqrsum 214386.88969298
field min 16.948739242403
field max 32.985394263431
attr interpolationmode  none
attr title  "Latency time of file print, stats"
attr unit  s
statistic UCACnet.owner[146] 	latency:stats
field count 209
field mean 31.708744447899
field stddev 0.58581010821091
field sum 6627.127589611
field sqrsum 210209.27524704
field min 29.708230319368
field max 33.407223537627
attr interpolationmode  none
attr title  "Latency time of file print, stats"
attr unit  s
statistic UCACnet.owner[147] 	latency:stats
field count 209
field mean 31.714692121296
field stddev 0.58641931279078
field sum 6628.3706533508
field sqrsum 210288.26315982
field min 29.737342627676
field max 33.308505408124
attr interpolationmode  none
attr title  "Latency time of file print, stats"
attr unit  s
statistic UCACnet.owner[148] 	latency:stats
field count 211
field mean 31.701794884705
field stddev 0.6174340507498
field sum 6689.0787206727
field sqrsum 212135.85877989
field min 29.397168291211
field max 33.251555785117
attr interpolationmode  none
attr title  "Latency time of file print, stats"
attr unit  s
statistic UCACnet.owner[149] 	latency:stats
field count 209
field mean 31.604284342439
field stddev 1.4392191796499
field sum 6605.2954275697
field sqrsum 209186.47604292
field min 12.774107225179
field max 33.253800377341
attr interpolationmode  none
attr title  "Latency time of file print, stats"
attr unit  s
statistic UCACnet.owner[150] 	latency:stats
field count 209
field mean 31.643065108814
field stddev 1.2833653613381
field sum 6613.400607742
field sqrsum 209610.84756479
field min 15.044245516058
field max 33.205090121584
attr interpolationmode  none
attr title  "Latency time of file print, stats"
attr unit  s
statistic UCACnet.owner[151] 	latency:stats
field count 210
field mean 31.718265216409
field stddev 0.55852438743414
field sum 6660.835695446
field sqrsum 211335.35059478
field min 30.230208737783
field max 33.370066781738
attr interpolationmode  none
attr title  "Latency time of file print, stats"
attr unit  s
statistic UCACnet.owner[152] 	latency:stats
field count 209
field mean 31.69566205466
field stddev 0.60327894362448
field sum 6624.393369424
field sqrsum 210040.23421503
field min 28.929906097003
field max 33.026717665193
attr interpolationmode  none
attr title  "Latency time of file print, stats"
attr unit  s
statistic UCACnet.owner[153] 	latency:stats
field count 204
field mean 31.692096699967
field stddev 0.67180796592034
field sum 6465.1877267933
field sqrsum 204986.97378742
field min 29.688532784974
field max 33.461446706671
attr interpolationmode  none
attr title  "Latency time of file print, stats"
attr unit  s
statistic UCACnet.owner[154] 	latency:stats
field count 207
field mean 31.66124986243
field stddev 0.87019042833303
field sum 6553.878721523
field sqrsum 207659.98143481
field min 22.303440853528
field max 32.813017783405
attr interpolationmode  none
attr title  "Latency time of file print, stats"
attr unit  s
statistic UCACnet.owner[155] 	latency:stats
field count 200
field mean 31.679202566709
field stddev 0.57796890953373
field sum 6335.8405133419
field sqrsum 200780.85061654
field min 30.071283835699
field max 33.102319921432
attr interpolationmode  none
attr title  "Latency time of file print, stats"
attr unit  s
statistic UCACnet.owner[156] 	latency:stats
field count 209
field mean 31.672695535687
field stddev 0.59057425110026
field sum 6619.5933669586
field sqrsum 209732.91109451
field min 29.184247612827
field max 33.117299800897
attr interpolationmode  none
attr title  "Latency time of file print, stats"
attr unit  s
statistic UCACnet.owner[157] 	latency:stats
field count 209
field mean 31.734986710309
field stddev 0.58460481320797
field sum 6632.6122224546
field sqrsum 210556.94739405
field min 30.007275026588
field max 33.387876276291
attr interpolationmode  none
attr title  "Latency time of file print, stats"
attr unit  s
statistic UCACnet.owner[158] 	latency:stats
field count 208
field mean 31.646751408636
field stddev 0.90753092638395
field sum 6582.5242929962
field sqrsum 208485.9977049
field min 22.154122142387
field max 33.400655438473
attr interpolationmode  none
attr title  "Latency time of file print, stats"
attr unit  s
statistic UCACnet.owner[159] 	latency:stats
field count 209
field mean 31.711774445337
field stddev 0.5793314145344
field sum 6627.7608590753
field sqrsum 210247.8674173
field min 29.908221740235
field max 33.475273241154
attr interpolationmode  none
attr title  "Latency time of file print, stats"
attr unit  s
statistic UCACnet.owner[160] 	latency:stats
field count 207
field mean 31.663304738221
field stddev 0.58996671195444
field sum 6554.3040808118
field sqrsum 207602.62796628
field min 29.714999018023
field max 33.216625726968
attr interpolationmode  none
attr title  "Latency time of file print, stats"
attr unit  s
statistic UCACnet.owner[161] 	latency:stats
field count 208
field mean 31.699091823851
field stddev 0.62470455917699
field sum 6593.411099361
field sqrsum 209085.9268188
field min 30.038685237152
field max 33.28704130059
attr interpolationmode  none
attr title  "Latency time of file print, stats"
attr unit  s
statistic UCACnet.owner[162] 	latency:stats
field count 208
field mean 31.674180172192
field stddev 0.56684492498321
field sum 6588.229475816
field sqrsum 208743.27925872
field min 30.310830015935
field max 33.289784060896
attr interpolationmode  none
attr title  "Latency time of file print, stats"
attr unit  s
statistic UCACnet.owner[163] 	latency:stats
field count 209
field mean 31.694276143079
field stddev 0.61209502925969
field sum 6624.1037139035
field sqrsum 210024.10165642
field min 29.818649623598
field max 33.115078850593
attr interpolationmode  none
attr title  "Latency time of file print, stats"
attr unit  s
statistic UCACnet.owner[164] 	latency:stats
field count 211
field mean 31.586091583142
field stddev 1.1173401112492
field sum 6664.665324043
field sqrsum 210772.9035703
field min 17.861034491819
field max 33.139332633613
attr interpolationmode  none
attr title  "Latency time of file print, stats"
attr unit  s
statistic UCACnet.owner[165] 	latency:stats
field count 206
field mean 31.647368453839
field stddev 0.66599099440115
field sum 6519.3579014908
field sqrsum 206411.44811188
field min 26.978054025823
field max 32.923522718882
attr interpolationmode  none
attr title  "Latency time of file print, stats"
attr unit  s
statistic UCACnet.owner[166] 	latency:stats
field count 204
field mean 31.696490060597
field stddev 0.60372621955246
field sum 6466.0839723619
field sqrsum 205026.15688664
field min 29.966067232434
field max 33.438113235989
attr interpolationmode  none
attr title  "Latency time of file print, stats"
attr unit  s
statistic UCACnet.owner[167] 	latency:stats
field count 214
field mean 31.673902044218
field stddev 0.62720194557826
field sum 6778.2150374626
field sqrsum 214776.30955699
field min 29.589309790948
field max 33.127410019571
attr interpolationmode  none
attr title  "Latency time of file print, stats"
attr unit  s
statistic UCACnet.owner[168] 	latency:stats
field count 208
field mean 31.632099106827
field stddev 0.64189165718863
field sum 6579.4766142201
field sqrsum 208207.94548627
field min 29.611797324431
field max 33.217080281542
attr interpolationmode  none
attr title  "Latency time of file print, stats"
attr unit  s
statistic UCACnet.owner[169] 	latency:stats
field count 209
field mean 31.658938243089
field stddev 0.54215696343267
field sum 6616.7180928056
field sqrsum 209539.40778005
field min 29.631442987548
field max 33.366084220866
attr interpolationmode  none
attr title  "Latency time of file print, stats"
attr unit  s
statistic UCACnet.owner[170] 	latency:stats
field count 210
field mean 31.662626597606
field stddev 0.61831420790854
field sum 6649.1515854972
field sqrsum 210609.50714655
field min 28.467860105662
field max 33.105913662808
attr interpolationmode  none
attr title  "Latency time of file print, stats"
attr unit  s
statistic UCACnet.owner[171] 	latency:stats
field count 209
field mean 31.675102441799
field stddev 0.53826183027711
field sum 6620.096410336
field sqrsum 209752.49493795
field min 30.131436218928
field max 33.127045835439
attr interpolationmode  none
attr title  "Latency time of file print, stats"
attr unit  s
statistic UCACnet.owner[172] 	latency:stats
field count 215
field mean 31.668237433419
field stddev 0.58617043563572
field sum 6808.671048185
field sqrsum 215692.14085681
field min 29.989847404038
field max 33.227986121014
attr interpolationmode  none
attr title  "Latency time of file print, stats"
attr unit  s
statistic UCACnet.owner[173] 	latency:stats
field count 210
field mean 31.712633837594
field stddev 0.6141183537195
field sum 6659.6531058948
field sqrsum 211273.96297529
field min 29.776770924659
field max 33.384771294715
attr interpolationmode  none
attr title  "Latency time of file print, stats"
attr unit  s
statistic UCACnet.owner[174] 	latency:stats
field count 212
field mean 31.612311141483
field stddev 0.99710839401791
field sum 6701.8099619943
field sqrsum 212069.48323618
field min 20.353505422458
field max 33.035594102369
attr interpolationmode  none
attr title  "Latency time of file print, stats"
attr unit  s
statistic UCACnet.owner[175] 	latency:stats
field count 204
field mean 31.647571095307
field stddev 0.61454779770655
field sum 6456.1045034425
field sqrsum 204396.69307755
field min 29.697177558114
field max 32.996860583192
attr interpolationmode  none
attr title  "Latency time of file print, stats"
attr unit  s
statistic UCACnet.owner[176] 	latency:stats
field count 210
field mean 31.668260809991
field stddev 0.642043151383
field sum 6650.3347700981
field sqrsum 210690.68982954
field min 29.677999417317
field max 33.271052095898
attr interpolationmode  none
attr title  "Latency time of file print, stats"
attr unit  s
statistic UCACnet.owner[177] 	latency:stats
field count 209
field mean 31.633739707217
field stddev 1.0340972502909
field sum 6611.4515988083
field sqrsum 209367.36524516
field min 19.306303683245
field max 33.258099583556
attr interpolationmode  none
attr title  "Latency time of file print, stats"
attr unit  s
statistic UCACnet.owner[178] 	latency:stats
field count 202
field mean 31.716750251293
field stddev 0.60858187891936
field sum 6406.7835507611
field sqrsum 203276.79854615
field min 29.761881003598
field max 33.148750260618
attr interpolationmode  none
attr title  "Latency time of file print, stats"
attr unit  s
statistic UCACnet.owner[179] 	latency:stats
field count 214
field mean 31.70219649345
field stddev 0.61896375087139
field sum 6784.2700495982
field sqrsum 215157.86591159
field min 28.82660435135
field max 33.514888352356
attr interpolationmode  none
attr title  "Latency time of file print, stats"
attr unit  s
statistic UCACnet.owner[180] 	latency:stats
field count 209
field mean 31.685438537983
field stddev 0.59350185295752
field sum 6622.2566544384
field sqrsum 209902.37305244
field min 29.754406365655
field max 33.181698334814
attr interpolationmode  none
attr title  "Latency time of file print, stats"
attr unit  s
statistic UCACnet.owner[181] 	latency:stats
field count 210
field mean 31.55417207792
field stddev 1.5243844574494
field sum 6626.3761363632
field sqrsum 209575.47618642
field min 11.290001
field max 32.984141806792
attr interpolationmode  none
attr title  "Latency time of file print, stats"
attr unit  s
statistic UCACnet.owner[182] 	latency:stats
field count 211
field mean 31.676669863588
field stddev 0.59212381734744
field sum 6683.7773412172
field sqrsum 211793.43650863
field min 29.763683075995
field max 33.475549405732
attr interpolationmode  none
attr title  "Latency time of file print, stats"
attr unit  s
statistic UCACnet.owner[183] 	latency:stats
field count 204
field mean 31.65127656517
field stddev 0.61620640828173
field sum 6456.8604192947
field sqrsum 204444.95607233
field min 29.561392901295
field max 33.237146732659
attr interpolationmode  none
attr title  "Latency time of file print, stats"
attr unit  s
statistic UCACnet.owner[184] 	latency:stats
field count 208
field mean 31.628507329715
field stddev 0.8503165264689
field sum 6578.7295245808
field sqrsum 208225.06389482
field min 22.866701371033
field max 33.279930946155
attr interpolationmode  none
attr title  "Latency time of file print, stats"
attr unit  s
statistic UCACnet.owner[185] 	latency:stats
field count 215
field mean 31.633921259347
field stddev 0.60407673754231
field sum 6801.2930707596
field sqrsum 215229.65992499
field min 30.16063847141
field max 33.464201964846
attr interpolationmode  none
attr title  "Latency time of file print, stats"
attr unit  s
statistic UCACnet.owner[186] 	latency:stats
field count 210
field mean 31.69775657579
field stddev 0.61284799902581
field sum 6656.528880916
field sqrsum 211075.528885
field min 29.809194476909
field max 33.451669758334
attr interpolationmode  none
attr title  "Latency time of file print, stats"
attr unit  s
statistic UCACnet.owner[187] 	latency:stats
field count 207
field mean 31.720443636682
field stddev 0.62621174186752
field sum 6566.1318327931
field sqrsum 208361.39578914
field min 29.413541355146
field max 33.388093957484
attr interpolationmode  none
attr title  "Latency time of file print, stats"
attr unit  s
statistic UCACnet.owner[188] 	latency:stats
field count 207
field mean 31.638503103039
field stddev 0.63215045495842
field sum 6549.170142329
field sqrsum 207288.26039513
field min 29.115466836379
field max 33.388054892994
attr interpolationmode  none
attr title  "Latency time of file print, stats"
attr unit  s
statistic UCACnet.owner[189] 	latency:stats
field count 207
field mean 31.647009980602
field stddev 0.61653795369346
field sum 6550.9310659846
field sqrsum 207395.68535141
field min 28.408831269017
field max 33.004268586619
attr interpolationmode  none
attr title  "Latency time of file print, stats"
attr unit  s
statistic UCACnet.owner[190] 	latency:stats
field count 212
field mean 31.688571389092
field stddev 0.70732579667868
field sum 6717.9771344875
field sqrsum 212988.66338063
field min 25.580504120968
field max 33.364653336581
attr interpolationmode  none
attr title  "Latency time of file print, stats"
attr unit  s
statistic UCACnet.owner[191] 	latency:stats
field count 215
field mean 31.670382822475
field stddev 0.56865151496923
field sum 6809.132306832
field sqrsum 215717.02685898
field min 30.149888871037
field max 33.311965354273
attr interpolationmode  none
attr title  "Latency time of file print, stats"
attr unit  s
statistic UCACnet.owner[192] 	latency:stats
field count 208
field mean 31.713008539044
field stddev 0.57801929331697
field sum 6596.3057761211
field sqrsum 209257.86140909
field min 29.991993111661
field max 33.354718087048
attr interpolationmode  none
attr title  "Latency time of file print, stats"
attr unit  s
statistic UCACnet.owner[193] 	latency:stats
field count 204
field mean 31.677375047739
field stddev 0.63103286757294
field sum 6462.1845097387
field sqrsum 204785.87744611
field min 29.950765082787
field max 33.274500679859
attr interpolationmode  none
attr title  "Latency time of file print, stats"
attr unit  s
statistic UCACnet.owner[194] 	latency:stats
field count 208
field mean 31.606984303527
field stddev 1.4309288858901
field sum 6574.2527351336
field sqrsum 208216.14740442
field min 12.840883918684
field max 33.096465589726
attr interpolationmode  none
attr title  "Latency time of file print, stats"
attr unit  s
statistic UCACnet.owner[195] 	latency:stats
field count 211
field mean 31.629137234518
field stddev 0.75864311456855
field sum 6673.7479564833
field sqrsum 211205.753253
field min 24.867485986793
field max 33.489608572323
attr interpolationmode  none
attr title  "Latency time of file print, stats"
attr unit  s
statistic UCACnet.owner[196] 	latency:stats
field count 209
field mean 31.689593266111
field stddev 0.55830668756686
field sum 6623.1249926172
field sqrsum 209948.97208899
field min 30.205501754004
field max 33.104871279918
attr interpolationmode  none
attr title  "Latency time of file print, stats"
attr unit  s
statistic UCACnet.owner[197] 	latency:stats
field count 211
field mean 31.67322566601
field stddev 0.57650978451366
field sum 6683.0506155281
field sqrsum 211743.56662463
field min 30.216688135356
field max 33.486803985626
attr interpolationmode  none
attr title  "Latency time of file print, stats"
attr unit  s
statistic UCACnet.owner[198] 	latency:stats
field count 206
field mean 31.5802981039
field stddev 1.5524805018585
field sum 6505.5414094035
field sqrsum 205941.0271565
field min 11.000943101717
field max 33.34324453857
attr interpolationmode  none
attr title  "Latency time of file print, stats"
attr unit  s
statistic UCACnet.owner[199] 	latency:stats
field count 207
field mean 31.661767134331
field stddev 0.81241487153153
field sum 6553.9857968066
field sqrsum 207646.73579244
field min 23.952593444335
field max 33.453822349739
attr interpolationmode  none
attr title  "Latency time of file print, stats"
attr unit  s
statistic UCACnet.owner[200] 	latency:stats
field count 215
field mean 31.680362122783
field stddev 0.62442386453353
field sum 6811.2778563983
field sqrsum 215867.18871439
field min 29.540635919464
field max 33.459667086916
attr interpolationmode  none
attr title  "Latency time of file print, stats"
attr unit  s
statistic UCACnet.owner[201] 	latency:stats
field count 206
field mean 31.716104374541
field stddev 0.57555199375881
field sum 6533.5175011555
field sqrsum 207285.63131953
field min 30.201900821687
field max 33.283178185156
attr interpolationmode  none
attr title  "Latency time of file print, stats"
attr unit  s
statistic UCACnet.owner[202] 	latency:stats
field count 215
field mean 31.671658750093
field stddev 0.6193150092621
field sum 6809.40663127
field sqrsum 215747.28304747
field min 28.618791898094
field max 33.247386061491
attr interpolationmode  none
attr title  "Latency time of file print, stats"
attr unit  s
statistic UCACnet.owner[203] 	latency:stats
field count 213
field mean 31.736781693244
field stddev 0.6452945662394
field sum 6759.9345006611
field sqrsum 214626.84338448
field min 29.676042348611
field max 33.478921972275
attr interpolationmode  none
attr title  "Latency time of file print, stats"
attr unit  s
statistic UCACnet.owner[204] 	latency:stats
field count 211
field mean 31.712640183885
field stddev 0.58136685687539
field sum 6691.3670787997
field sqrsum 212271.89386694
field min 30.294972134238
field max 33.485680524294
attr interpolationmode  none
attr title  "Latency time of file print, stats"
attr unit  s
statistic UCACnet.owner[205] 	latency:stats
field count 208
field mean 31.687793544741
field stddev 0.62987176077233
field sum 6591.0610573062
field sqrsum 208938.30688075
field min 29.082541124288
field max 33.053664294515
attr interpolationmode  none
attr title  "Latency time of file print, stats"
attr unit  s
statistic UCACnet.owner[206] 	latency:stats
field count 210
field mean 31.659922733042
field stddev 0.5810176263966
field sum 6648.5837739387
field sqrsum 210564.20309683
field min 30.022544596685
field max 32.916713677265
attr interpolationmode  none
attr title  "Latency time of file print, stats"
attr unit  s
statistic UCACnet.owner[207] 	latency:stats
field count 216
field mean 31.691062846866
field stddev 0.58913541572688
field sum 6845.269574923
field sqrsum 217008.4906183
field min 30.115229481541
field max 33.4429538731
attr interpolationmode  none
attr title  "Latency time of file print, stats"
attr unit  s
statistic UCACnet.owner[208] 	latency:stats
field count 211
field mean 31.660308078956
field stddev 0.66342923625058
field sum 6680.3250046597
field sqrsum 211593.5767689
field min 27.96779878156
field max 33.028120637582
attr interpolationmode  none
attr title  "Latency time of file print, stats"
attr unit  s
statistic UCACnet.owner[209] 	latency:stats
field count 210
field mean 31.7231731379
field stddev 0.54167719120409
field sum 6661.866358959
field sqrsum 211396.86349032
field min 30.25166593386
field max 33.077764413697
attr interpolationmode  none
attr title  "Latency time of file print, stats"
attr unit  s
statistic UCACnet.owner[210] 	latency:stats
field count 208
field mean 31.641092710131
field stddev 0.61182968377966
field sum 6581.3472837074
field sqrsum 208318.50702268
field min 29.731351765145
field max 33.335384398729
attr interpolationmode  none
attr title  "Latency time of file print, stats"
attr unit  s
statistic UCACnet.owner[211] 	latency:stats
field count 204
field mean 31.715337715942
field stddev 0.59746569638945
field sum 6469.9288940521
field sqrsum 205268.44382044
field min 29.668393569311
field max 33.301263019056
attr interpolationmode  none
attr title  "Latency time of file print, stats"
attr unit  s
statistic UCACnet.owner[212] 	latency:stats
field count 214
field mean 31.70032940785
field stddev 0.60941878685219
field sum 6783.8704932799
field sqrsum 215130.03563507
field min 29.863559684934
field max 33.407113462776
attr interpolationmode  none
attr title  "Latency time of file print, stats"
attr unit  s
statistic UCACnet.owner[213] 	latency:stats
field count 204
field mean 31.665283838847
field stddev 0.59201900034417
field sum 6459.7179031248
field sqrsum 204619.94968017
field min 29.623318661245
field max 33.051018379252
attr interpolationmode  none
attr title  "Latency time of file print, stats"
attr unit  s
statistic UCACnet.owner[214] 	latency:stats
field count 207
field mean 31.758624732378
field stddev 0.60608880012864
field sum 6574.0353196023
field sqrsum 208857.99348118
field min 29.768461410578
field max 33.303800390996
attr interpolationmode  none
attr title  "Latency time of file print, stats"
attr unit  s
statistic UCACnet.owner[215] 	latency:stats
field count 200
field mean 31.642511232371
field stddev 0.59126323048367
field sum 6328.5022464741
field sqrsum 200319.27226748
field min 29.777544470615
field max 33.475421206452
attr interpolationmode  none
attr title  "Latency time of file print, stats"
attr unit  s
statistic UCACnet.owner[216] 	latency:stats
field count 210
field mean 31.644899942001
field stddev 0.64151791533852
field sum 6645.4289878202
field sqrsum 210379.9483455
field min 27.229808577729
field max 33.145672948207
attr interpolationmode  none
attr title  "Latency time of file print, stats"
attr unit  s
statistic UCACnet.owner[217] 	latency:stats
field count 214
field mean 31.66438010161
field stddev 0.5799576799448
field sum 6776.1773417446
field sqrsum 214635.09772886
field min 30.048656721088
field max 33.33901034956
attr interpolationmode  none
attr title  "Latency time of file print, stats"
attr unit  s
statistic UCACnet.owner[218] 	latency:stats
field count 201
field mean 31.711022666653
field stddev 0.54995571720903
field sum 6373.9155559973
field sqrsum 202183.87092974
field min 29.701709171488
field max 32.96855898358
attr interpolationmode  none
attr title  "Latency time of file print, stats"
attr unit  s
statistic UCACnet.owner[219] 	latency:stats
field count 207
field mean 31.697818380856
field stddev 0.60440551744326
field sum 6561.4484048371
field sqrsum 208058.85289396
field min 29.621702345761
field max 33.489928871311
attr interpolationmode  none
attr title  "Latency time of file print, stats"
attr unit  s
statistic UCACnet.owner[220] 	latency:stats
field count 207
field mean 31.659018437116
field stddev 0.56553618782535
field sum 6553.416816483
field sqrsum 207540.62904217
field min 30.301267060351
field max 33.196901214681
attr interpolationmode  none
attr title  "Latency time of file print, stats"
attr unit  s
statistic UCACnet.owner[221] 	latency:stats
field count 207
field mean 31.690789014072
field stddev 0.55526154121272
field sum 6559.9933259129
field sqrsum 207954.87739333
field min 29.778868479647
field max 32.972803238389
attr interpolationmode  none
attr title  "Latency time of file print, stats"
attr unit  s
statistic UCACnet.owner[222] 	latency:stats
field count 208
field mean 31.687984337116
field stddev 0.57086248334075
field sum 6591.1007421202
field sqrsum 208926.15506346
field min 30.178227785594
field max 33.140530296343
attr interpolationmode  none
attr title  "Latency time of file print, stats"
attr unit  s
statistic UCACnet.owner[223] 	latency:stats
field count 205
field mean 31.672769382528
field stddev 0.62433992313042
field sum 6492.9177234183
field sqrsum 205728.20494284
field min 29.669015561069
field max 33.213010475342
attr interpolationmode  none
attr title  "Latency time of file print, stats"
attr unit  s
statistic UCACnet.owner[224] 	latency:stats
field count 211
field mean 31.670424175062
field stddev 0.5800745759442
field sum 6682.4595009382
field sqrsum 211706.98909526
field min 29.788899464746
field max 33.441622834175
attr interpolationmode  none
attr title  "Latency time of file print, stats"
attr unit  s
statistic UCACnet.owner[225] 	latency:stats
field count 210
field mean 31.616677845136
field stddev 0.90782095910757
field sum 6639.5023474786
field sqrsum 210091.25180106
field min 21.942742033019
field max 33.137788473934
attr interpolationmode  none
attr title  "Latency time of file print, stats"
attr unit  s
statistic UCACnet.owner[226] 	latency:stats
field count 204
field mean 31.616261837023
field stddev 0.66061195933853
field sum 6449.7174147527
field sqrsum 204004.54541627
field min 29.255807173899
field max 33.408564842723
attr interpolationmode  none
attr title  "Latency time of file print, stats"
attr unit  s
statistic UCACnet.owner[227] 	latency:stats
field count 203
field mean 31.678693496541
field stddev 0.60571812015401
field sum 6430.7747797979
field sqrsum 203792.6558716
field min 29.660167588554
field max 33.095438031627
attr interpolationmode  none
attr title  "Latency time of file print, stats"
attr unit  s
statistic UCACnet.owner[228] 	latency:stats
field count 207
field mean 31.669120610952
field stddev 0.58669166731222
field sum 6555.507966467
field sqrsum 207678.07912127
field min 29.945413412709
field max 32.906098758378
attr interpolationmode  none
attr title  "Latency time of file print, stats"
attr unit  s
statistic UCACnet.owner[229] 	latency:stats
field count 206
field mean 31.669971562786
field stddev 0.58789669632718
field sum 6524.0141419339
field sqrsum 206686.194968
field min 30.094206661973
field max 33.301553942669
attr interpolationmode  none
attr title  "Latency time of file print, stats"
attr unit  s
statistic UCACnet.owner[230] 	latency:stats
field count 209
field mean 31.676785384036
field stddev 0.58893200411648
field sum 6620.4481452636
field sqrsum 209786.65795199
field min 29.756895881735
field max 33.364827653264
attr interpolationmode  none
attr title  "Latency time of file print, stats"
attr unit  s
statistic UCACnet.owner[231] 	latency:stats
field count 207
field mean 31.730724479301
field stddev 0.59882569467048
field sum 6568.2599672153
field sqrsum 208489.51732393
field min 29.712507084712
field max 33.421188338203
attr interpolationmode  none
attr title  "Latency time of file print, stats"
attr unit  s
statistic UCACnet.owner[232] 	latency:stats
field count 206
field mean 31.67949939972
field stddev 0.57248165793153
field sum 6525.9768763423
field sqrsum 206806.86626265
field min 29.916143829494
field max 33.256294394887
attr interpolationmode  none
attr title  "Latency time of file print, stats"
attr unit  s
statistic UCACnet.owner[233] 	latency:stats
field count 215
field mean 31.643261414551
field stddev 0.64918595552441
field sum 6803.3012041284
field sqrsum 215368.8271588
field min 27.99990374594
field max 33.135574003725
attr interpolationmode  none
attr title  "Latency time of file print, stats"
attr unit  s
statistic UCACnet.owner[234] 	latency:stats
field count 210
field mean 31.694904243135
field stddev 0.6070071594409
field sum 6655.9298910584
field sqrsum 211036.06820366
field min 29.971448927749
field max 33.300650243376
attr interpolationmode  none
attr title  "Latency time of file print, stats"
attr unit  s
statistic UCACnet.owner[235] 	latency:stats
field count 208
field mean 31.661858124496
field stddev 0.59604807945599
field sum 6585.6664898952
field sqrsum 208587.9796341
field min 29.636620082573
field max 33.175040965212
attr interpolationmode  none
attr title  "Latency time of file print, stats"
attr unit  s
statistic UCACnet.owner[236] 	latency:stats
field count 203
field mean 31.682759427312
field stddev 0.59935092893485
field sum 6431.6001637443
field sqrsum 203843.40347084
field min 30.203021471462
field max 33.028172614867
attr interpolationmode  none
attr title  "Latency time of file print, stats"
attr unit  s
statistic UCACnet.owner[237] 	latency:stats
field count 206
field mean 31.647752565169
field stddev 0.57583378669985
field sum 6519.4370284249
field sqrsum 206393.50477252
field min 29.970918351342
field max 32.964501954937
attr interpolationmode  none
attr title  "Latency time of file print, stats"
attr unit  s
statistic UCACnet.owner[238] 	latency:stats
field count 212
field mean 31.720949979209
field stddev 0.5937274014349
field sum 6724.8413955922
field sqrsum 213392.73760764
field min 29.806499732161
field max 33.452179170194
attr interpolationmode  none
attr title  "Latency time of file print, stats"
attr unit  s
statistic UCACnet.owner[239] 	latency:stats
field count 206
field mean 31.728116693798
field stddev 0.56315973019519
field sum 6535.9920389224
field sqrsum 207439.73364142
field min 29.648093677439
field max 33.365394402273
attr interpolationmode  none
attr title  "Latency time of file print, stats"
attr unit  s
statistic UCACnet.owner[240] 	latency:stats
field count 209
field mean 31.664938189305
field stddev 0.59099576734897
field sum 6617.9720815648
field sqrsum 209630.32630868
field min 30.291534609286
field max 33.361895320203
attr interpolationmode  none
attr title  "Latency time of file print, stats"
attr unit  s
statistic UCACnet.owner[241] 	latency:stats
field count 209
field mean 31.681910480468
field stddev 0.60016777865992
field sum 6621.5192904179
field sqrsum 209857.30328712
field min 29.866656342516
field max 33.519659665276
attr interpolationmode  none
attr title  "Latency time of file print, stats"
attr unit  s
statistic UCACnet.owner[242] 	latency:stats
field count 212
field mean 31.655838786009
field stddev 0.59089852537058
field sum 6711.037822634
field sqrsum 212517.20438531
field min 29.689692604893
field max 32.961993683383
attr interpolationmode  none
attr title  "Latency time of file print, stats"
attr unit  s
statistic UCACnet.owner[243] 	latency:stats
field count 208
field mean 31.68069779106
field stddev 0.6310912439373
field sum 6589.5851405404
field sqrsum 208845.09857066
field min 29.848384155975
field max 32.895651479698
attr interpolationmode  none
attr title  "Latency time of file print, stats"
attr unit  s
statistic UCACnet.owner[244] 	latency:stats
field count 207
field mean 31.667974058177
field stddev 0.59765016509477
field sum 6555.2706300426
field sqrsum 207665.72051481
field min 29.962575218902
field max 32.903886056323
attr interpolationmode  none
attr title  "Latency time of file print, stats"
attr unit  s
statistic UCACnet.owner[245] 	latency:stats
field count 204
field mean 31.653072157761
field stddev 0.68919376506186
field sum 6457.2267201832
field sqrsum 204487.48588628
field min 27.451436089886
field max 33.117381758627
attr interpolationmode  none
attr title  "Latency time of file print, stats"
attr unit  s
statistic UCACnet.owner[246] 	latency:stats
field count 208
field mean 31.67960812182
field stddev 0.63368366227082
field sum 6589.3584893386
field sqrsum 208831.41659809
field min 29.676997880582
field max 33.440038400187
attr interpolationmode  none
attr title  "Latency time of file print, stats"
attr unit  s
statistic UCACnet.owner[247] 	latency:stats
field count 207
field mean 31.679325446692
field stddev 0.59676935545397
field sum 6557.6203674652
field sqrsum 207814.35331149
field min 29.905814725597
field max 33.349650186208
attr interpolationmode  none
attr title  "Latency time of file print, stats"
attr unit  s
statistic UCACnet.owner[248] 	latency:stats
field count 211
field mean 31.729863395522
field stddev 0.59406321376513
field sum 6695.0011764551
field sqrsum 212505.58409318
field min 29.639098209719
field max 33.138042534564
attr interpolationmode  none
attr title  "Latency time of file print, stats"
attr unit  s
statistic UCACnet.owner[249] 	latency:stats
field count 208
field mean 31.669490990539
field stddev 0.59117034027523
field sum 6587.2541260322
field sqrsum 208687.32804761
field min 30.091209801982
field max 33.471472851702
attr interpolationmode  none
attr title  "Latency time of file print, stats"
attr unit  s
statistic UCACnet.owner[250] 	latency:stats
field count 212
field mean 31.689504881137
field stddev 0.59207152240548
field sum 6718.1750348011
field sqrsum 212969.60633076
field min 30.248721516419
field max 33.425979702575
attr interpolationmode  none
attr title  "Latency time of file print, stats"
attr unit  s
statistic UCACnet.owner[251] 	latency:stats
field count 211
field mean 31.679676224966
field stddev 0.57283201465303
field sum 6684.4116834679
field sqrsum 211828.90655522
field min 29.913922207907
field max 33.246188388794
attr interpolationmode  none
attr title  "Latency time of file print, stats"
attr unit  s
statistic UCACnet.owner[252] 	latency:stats
field count 207
field mean 31.608603483109
field stddev 1.4619148493335
field sum 6542.9809210037
field sqrsum 207254.75170506
field min 12.52621069316
field max 33.352129518249
attr interpolationmode  none
attr title  "Latency time of file print, stats"
attr unit  s
statistic UCACnet.owner[253] 	latency:stats
field count 209
field mean 31.681011948298
field stddev 0.59978833277519
field sum 6621.3314971943
field sqrsum 209845.30945343
field min 29.6848390599
field max 33.189497502928
attr interpolationmode  none
attr title  "Latency time of file print, stats"
attr unit  s
statistic UCACnet.owner[254] 	latency:stats
field count 201
field mean 31.707860829687
field stddev 0.61557331704773
field sum 6373.280026767
field sqrsum 202158.86221908
[...]
field mean 31.688719822991
field stddev 0.5833613296382
field sum 6559.5650033592
field sqrsum 207934.32150298
field min 30.15007752243
field max 33.348989221803
attr interpolationmode  none
attr title  "Latency time of file print, stats"
attr unit  s
statistic UCACnet.owner[437] 	latency:stats
field count 203
field mean 31.681358125692
field stddev 0.56801862468481
field sum 6431.3156995155
field sqrsum 203817.99021765
field min 29.932278224765
field max 32.984880250686
attr interpolationmode  none
attr title  "Latency time of file print, stats"
attr unit  s
statistic UCACnet.owner[438] 	latency:stats
field count 202
field mean 31.691197154487
field stddev 0.58228945730406
field sum 6401.6218252063
field sqrsum 202943.21063451
field min 30.143765488798
field max 32.996854224694
attr interpolationmode  none
attr title  "Latency time of file print, stats"
attr unit  s
statistic UCACnet.owner[439] 	latency:stats
field count 209
field mean 31.680724655995
field stddev 0.616211573916
field sum 6621.2714531031
field sqrsum 209845.65885276
field min 29.68446384981
field max 33.409872898484
attr interpolationmode  none
attr title  "Latency time of file print, stats"
attr unit  s
statistic UCACnet.owner[440] 	latency:stats
field count 214
field mean 31.638822590788
field stddev 0.59384276610964
field sum 6770.7080344287
field sqrsum 214292.34460149
field min 29.694452735171
field max 33.436965577669
attr interpolationmode  none
attr title  "Latency time of file print, stats"
attr unit  s
statistic UCACnet.owner[441] 	latency:stats
field count 210
field mean 31.582777491764
field stddev 1.5715928724508
field sum 6632.3832732704
field sqrsum 209985.29512856
field min 10.561454987689
field max 33.366715829144
attr interpolationmode  none
attr title  "Latency time of file print, stats"
attr unit  s
statistic UCACnet.owner[442] 	latency:stats
field count 204
field mean 31.731982119415
field stddev 0.58649014825997
field sum 6473.3243523608
field sqrsum 205481.23865317
field min 29.726521369807
field max 33.248750708525
attr interpolationmode  none
attr title  "Latency time of file print, stats"
attr unit  s
statistic UCACnet.owner[443] 	latency:stats
field count 209
field mean 31.711862707851
field stddev 0.60036002846547
field sum 6627.7793059409
field sqrsum 210254.197298
field min 29.630375568475
field max 33.406410275769
attr interpolationmode  none
attr title  "Latency time of file print, stats"
attr unit  s
statistic UCACnet.owner[444] 	latency:stats
field count 208
field mean 31.702297376833
field stddev 0.60471549323388
field sum 6594.0778543813
field sqrsum 209123.11299693
field min 28.690261957912
field max 33.007419900539
attr interpolationmode  none
attr title  "Latency time of file print, stats"
attr unit  s
statistic UCACnet.owner[445] 	latency:stats
field count 208
field mean 31.68733516015
field stddev 0.60309192908813
field sum 6590.9657133112
field sqrsum 208925.42960086
field min 29.64509040036
field max 33.487863877087
attr interpolationmode  none
attr title  "Latency time of file print, stats"
attr unit  s
statistic UCACnet.owner[446] 	latency:stats
field count 213
field mean 31.712791092044
field stddev 0.60518948059615
field sum 6754.8245026054
field sqrsum 214291.98422772
field min 29.802032133277
field max 33.327936679552
attr interpolationmode  none
attr title  "Latency time of file print, stats"
attr unit  s
statistic UCACnet.owner[447] 	latency:stats
field count 213
field mean 31.672249172368
field stddev 0.54624054404456
field sum 6746.1890737145
field sqrsum 213730.23759777
field min 29.679492417502
field max 32.836278005821
attr interpolationmode  none
attr title  "Latency time of file print, stats"
attr unit  s
statistic UCACnet.owner[448] 	latency:stats
field count 209
field mean 31.61102101655
field stddev 0.72324185396645
field sum 6606.7033924589
field sqrsum 208953.44017523
field min 25.668530819284
field max 32.98775961078
attr interpolationmode  none
attr title  "Latency time of file print, stats"
attr unit  s
statistic UCACnet.owner[449] 	latency:stats
field count 206
field mean 31.693474088473
field stddev 0.58254938574196
field sum 6528.8556622255
field sqrsum 206991.68733443
field min 30.107997543749
field max 33.493431999912
attr interpolationmode  none
attr title  "Latency time of file print, stats"
attr unit  s
statistic UCACnet.owner[450] 	latency:stats
field count 208
field mean 31.648342258212
field stddev 0.57003586282501
field sum 6582.8551897081
field sqrsum 208403.7168433
field min 30.300161810707
field max 33.388317070384
attr interpolationmode  none
attr title  "Latency time of file print, stats"
attr unit  s
statistic UCACnet.owner[451] 	latency:stats
field count 212
field mean 31.68207825147
field stddev 0.6207908227252
field sum 6716.6005893115
field sqrsum 212877.18089725
field min 29.43053173226
field max 33.297361756265
attr interpolationmode  none
attr title  "Latency time of file print, stats"
attr unit  s
statistic UCACnet.owner[452] 	latency:stats
field count 206
field mean 31.713365003257
field stddev 0.60943376197597
field sum 6532.953190671
field sqrsum 207258.06803454
field min 29.98384460276
field max 33.482875672386
attr interpolationmode  none
attr title  "Latency time of file print, stats"
attr unit  s
statistic UCACnet.owner[453] 	latency:stats
field count 210
field mean 31.703782982728
field stddev 0.59674581628289
field sum 6657.7944263729
field sqrsum 211151.69570132
field min 29.788999690483
field max 33.326217839963
attr interpolationmode  none
attr title  "Latency time of file print, stats"
attr unit  s
statistic UCACnet.owner[454] 	latency:stats
field count 210
field mean 31.599735245997
field stddev 0.68478243309666
field sum 6635.9444016594
field sqrsum 209792.09193856
field min 26.838823569923
field max 33.027038680131
attr interpolationmode  none
attr title  "Latency time of file print, stats"
attr unit  s
statistic UCACnet.owner[455] 	latency:stats
field count 215
field mean 31.680986647159
field stddev 0.59640968376355
field sum 6811.4121291392
field sqrsum 215868.37747688
field min 29.880635727252
field max 33.108938101886
attr interpolationmode  none
attr title  "Latency time of file print, stats"
attr unit  s
statistic UCACnet.owner[456] 	latency:stats
field count 209
field mean 31.668147947443
field stddev 0.5971576491129
field sum 6618.6429210157
field sqrsum 209674.33546367
field min 29.618881101957
field max 33.427148051771
attr interpolationmode  none
attr title  "Latency time of file print, stats"
attr unit  s
statistic UCACnet.owner[457] 	latency:stats
field count 207
field mean 31.655502618122
field stddev 0.67296726664977
field sum 6552.6890419513
field sqrsum 207521.95942128
field min 27.401607212876
field max 33.158586146204
attr interpolationmode  none
attr title  "Latency time of file print, stats"
attr unit  s
statistic UCACnet.owner[458] 	latency:stats
field count 206
field mean 31.691109846781
field stddev 0.60618943941628
field sum 6528.3686284368
field sqrsum 206966.57777954
field min 29.687444941597
field max 33.407267427371
attr interpolationmode  none
attr title  "Latency time of file print, stats"
attr unit  s
statistic UCACnet.owner[459] 	latency:stats
field count 204
field mean 31.735120649397
field stddev 0.59403865084859
field sum 6473.9646124771
field sqrsum 205523.68308639
field min 29.835437481911
field max 33.04011990142
attr interpolationmode  none
attr title  "Latency time of file print, stats"
attr unit  s
statistic UCACnet.owner[460] 	latency:stats
field count 210
field mean 31.660406750322
field stddev 0.64006500414916
field sum 6648.6854175675
field sqrsum 210585.70846591
field min 28.150493921774
field max 33.430207620778
attr interpolationmode  none
attr title  "Latency time of file print, stats"
attr unit  s
statistic UCACnet.owner[461] 	latency:stats
field count 215
field mean 31.690824079738
field stddev 0.61925164794808
field sum 6813.5271771436
field sqrsum 216008.35427052
field min 29.596061867822
field max 33.323712444928
attr interpolationmode  none
attr title  "Latency time of file print, stats"
attr unit  s
statistic UCACnet.owner[462] 	latency:stats
field count 207
field mean 31.644667138909
field stddev 0.66764459222971
field sum 6550.4460977541
field sqrsum 207378.51073091
field min 26.796773312278
field max 33.199867311142
attr interpolationmode  none
attr title  "Latency time of file print, stats"
attr unit  s
statistic UCACnet.owner[463] 	latency:stats
field count 212
field mean 31.685074321804
field stddev 0.59629105259716
field sum 6717.2357562223
field sqrsum 212911.13797008
field min 29.799827335523
field max 33.238418078142
attr interpolationmode  none
attr title  "Latency time of file print, stats"
attr unit  s
statistic UCACnet.owner[464] 	latency:stats
field count 213
field mean 31.674743151961
field stddev 0.61942254381295
field sum 6746.7202913677
field sqrsum 213781.9734162
field min 29.562955995224
field max 33.146437121265
attr interpolationmode  none
attr title  "Latency time of file print, stats"
attr unit  s
statistic UCACnet.owner[465] 	latency:stats
field count 211
field mean 31.666974519814
field stddev 0.5902963039673
field sum 6681.7316236807
field sqrsum 211663.39951789
field min 29.502802586308
field max 33.323287431416
attr interpolationmode  none
attr title  "Latency time of file print, stats"
attr unit  s
statistic UCACnet.owner[466] 	latency:stats
field count 210
field mean 31.594649155283
field stddev 1.3816654222058
field sum 6634.8763226094
field sqrsum 210025.57046337
field min 13.366031054709
field max 33.178553539323
attr interpolationmode  none
attr title  "Latency time of file print, stats"
attr unit  s
statistic UCACnet.owner[467] 	latency:stats
field count 211
field mean 31.680388616399
field stddev 0.60769214430987
field sum 6684.5619980601
field sqrsum 211847.07267483
field min 29.731295066264
field max 33.492635814714
attr interpolationmode  none
attr title  "Latency time of file print, stats"
attr unit  s
statistic UCACnet.owner[468] 	latency:stats
field count 205
field mean 31.679952822352
field stddev 0.68791009826493
field sum 6494.3903285821
field sqrsum 205838.51616129
field min 26.580758322793
field max 33.498936859365
attr interpolationmode  none
attr title  "Latency time of file print, stats"
attr unit  s
statistic UCACnet.owner[469] 	latency:stats
field count 211
field mean 31.697621895686
field stddev 0.78560245595702
field sum 6688.1982199897
field sqrsum 212129.58429658
field min 24.353262094313
field max 33.250462091714
attr interpolationmode  none
attr title  "Latency time of file print, stats"
attr unit  s
statistic UCACnet.owner[470] 	latency:stats
field count 210
field mean 31.715849730479
field stddev 0.60231189003445
field sum 6660.3284434006
field sqrsum 211313.79700562
field min 30.071903736022
field max 33.195599101839
attr interpolationmode  none
attr title  "Latency time of file print, stats"
attr unit  s
statistic UCACnet.owner[471] 	latency:stats
field count 209
field mean 31.680236989121
field stddev 0.57689662857535
field sum 6621.1695307263
field sqrsum 209829.44430033
field min 30.098298967832
field max 33.310917997236
attr interpolationmode  none
attr title  "Latency time of file print, stats"
attr unit  s
statistic UCACnet.owner[472] 	latency:stats
field count 214
field mean 31.666965044262
field stddev 0.58903519160431
field sum 6776.730519472
field sqrsum 214672.39147783
field min 29.695728016799
field max 32.85888249232
attr interpolationmode  none
attr title  "Latency time of file print, stats"
attr unit  s
statistic UCACnet.owner[473] 	latency:stats
field count 205
field mean 31.687044322996
field stddev 0.60068908920955
field sum 6495.8440862142
field sqrsum 205907.70826105
field min 30.127238350602
field max 33.477952140826
attr interpolationmode  none
attr title  "Latency time of file print, stats"
attr unit  s
statistic UCACnet.owner[474] 	latency:stats
field count 212
field mean 31.688653229552
field stddev 0.58564084669287
field sum 6717.9944846651
field sqrsum 212956.56539007
field min 30.207207374713
field max 33.107297547733
attr interpolationmode  none
attr title  "Latency time of file print, stats"
attr unit  s
statistic UCACnet.owner[475] 	latency:stats
field count 205
field mean 31.630599720629
field stddev 0.63880709438239
field sum 6484.2729427289
field sqrsum 205184.68912954
field min 26.800812058929
field max 33.333551751962
attr interpolationmode  none
attr title  "Latency time of file print, stats"
attr unit  s
statistic UCACnet.owner[476] 	latency:stats
field count 208
field mean 31.676102236281
field stddev 0.60893024006512
field sum 6588.6292651463
field sqrsum 208778.84897944
field min 28.747848326878
field max 33.473689677077
attr interpolationmode  none
attr title  "Latency time of file print, stats"
attr unit  s
statistic UCACnet.owner[477] 	latency:stats
field count 205
field mean 31.630768940901
field stddev 0.74013866789413
field sum 6484.3076328847
field sqrsum 205215.38874803
field min 25.798428570591
field max 33.163658101909
attr interpolationmode  none
attr title  "Latency time of file print, stats"
attr unit  s
statistic UCACnet.owner[478] 	latency:stats
field count 212
field mean 31.706075901965
field stddev 0.60461697443125
field sum 6721.6880912167
field sqrsum 213195.48632515
field min 29.679059060982
field max 33.374151946311
attr interpolationmode  none
attr title  "Latency time of file print, stats"
attr unit  s
statistic UCACnet.owner[479] 	latency:stats
field count 210
field mean 31.729958498551
field stddev 0.56919543504871
field sum 6663.2912846958
field sqrsum 211493.6684668
field min 30.23403483238
field max 32.883817715611
attr interpolationmode  none
attr title  "Latency time of file print, stats"
attr unit  s
statistic UCACnet.owner[480] 	latency:stats
field count 212
field mean 31.669983375726
field stddev 0.6025647355947
field sum 6714.0364756539
field sqrsum 212710.03434696
field min 30.009619974211
field max 33.176161995465
attr interpolationmode  none
attr title  "Latency time of file print, stats"
attr unit  s
statistic UCACnet.owner[481] 	latency:stats
field count 211
field mean 31.687948826751
field stddev 0.59117184178977
field sum 6686.1572024445
field sqrsum 211943.99894944
field min 29.909431481742
field max 33.199208968622
attr interpolationmode  none
attr title  "Latency time of file print, stats"
attr unit  s
statistic UCACnet.owner[482] 	latency:stats
field count 212
field mean 31.61374409617
field stddev 0.88485294908709
field sum 6702.113748388
field sqrsum 212044.11450542
field min 22.047682607406
field max 33.359976672192
attr interpolationmode  none
attr title  "Latency time of file print, stats"
attr unit  s
statistic UCACnet.owner[483] 	latency:stats
field count 202
field mean 31.644026722072
field stddev 0.62798218575523
field sum 6392.0933978585
field sqrsum 202350.84097856
field min 30.041316102622
field max 33.421403511161
attr interpolationmode  none
attr title  "Latency time of file print, stats"
attr unit  s
statistic UCACnet.owner[484] 	latency:stats
field count 208
field mean 31.68974827367
field stddev 0.57207124374156
field sum 6591.4676409233
field sqrsum 208949.69425504
field min 30.053685456121
field max 33.472511318013
attr interpolationmode  none
attr title  "Latency time of file print, stats"
attr unit  s
statistic UCACnet.owner[485] 	latency:stats
field count 202
field mean 31.629213127701
field stddev 0.6200288679109
field sum 6389.1010517957
field sqrsum 202159.51045687
field min 28.726017371776
field max 33.034841326312
attr interpolationmode  none
attr title  "Latency time of file print, stats"
attr unit  s
statistic UCACnet.owner[486] 	latency:stats
field count 213
field mean 31.621909705674
field stddev 0.858292189483
field sum 6735.4667673085
field sqrsum 213144.49502369
field min 22.929588158688
field max 33.440686145009
attr interpolationmode  none
attr title  "Latency time of file print, stats"
attr unit  s
statistic UCACnet.owner[487] 	latency:stats
field count 208
field mean 31.617191429972
field stddev 0.71821540928447
field sum 6576.3758174342
field sqrsum 208033.3106437
field min 25.313394098219
field max 33.063209536264
attr interpolationmode  none
attr title  "Latency time of file print, stats"
attr unit  s
statistic UCACnet.owner[488] 	latency:stats
field count 211
field mean 31.692862249136
field stddev 0.60035197912241
field sum 6687.1939345676
field sqrsum 212012.00492626
field min 29.856344780271
field max 33.407881771768
attr interpolationmode  none
attr title  "Latency time of file print, stats"
attr unit  s
statistic UCACnet.owner[489] 	latency:stats
field count 204
field mean 31.725366090602
field stddev 0.58611501416341
field sum 6471.9746824828
field sqrsum 205395.50288527
field min 29.64074594582
field max 33.518015054827
attr interpolationmode  none
attr title  "Latency time of file print, stats"
attr unit  s
statistic UCACnet.owner[490] 	latency:stats
field count 207
field mean 31.652964903263
field stddev 0.57443694658021
field sum 6552.1637349755
field sqrsum 207463.38417156
field min 29.678972059594
field max 33.08390712567
attr interpolationmode  none
attr title  "Latency time of file print, stats"
attr unit  s
statistic UCACnet.owner[491] 	latency:stats
field count 207
field mean 31.693097135389
field stddev 0.57766404606999
field sum 6560.4711070255
field sqrsum 207990.3893734
field min 30.225834601302
field max 33.428642644448
attr interpolationmode  none
attr title  "Latency time of file print, stats"
attr unit  s
statistic UCACnet.owner[492] 	latency:stats
field count 210
field mean 31.695435007067
field stddev 0.55946220269782
field sum 6656.0413514841
field sqrsum 211031.54263317
field min 30.053429463984
field max 33.47174343813
attr interpolationmode  none
attr title  "Latency time of file print, stats"
attr unit  s
statistic UCACnet.owner[493] 	latency:stats
field count 213
field mean 31.721222569285
field stddev 0.58855967066327
field sum 6756.6204072576
field sqrsum 214401.69708181
field min 29.91937573067
field max 33.392777910141
attr interpolationmode  none
attr title  "Latency time of file print, stats"
attr unit  s
statistic UCACnet.owner[494] 	latency:stats
field count 215
field mean 31.638230984122
field stddev 0.71235795395788
field sum 6802.2196615862
field sqrsum 215318.79198288
field min 25.60542086966
field max 32.84287013267
attr interpolationmode  none
attr title  "Latency time of file print, stats"
attr unit  s
statistic UCACnet.owner[495] 	latency:stats
field count 208
field mean 31.618343576515
field stddev 0.73536869938854
field sum 6576.6154639152
field sqrsum 208053.62610337
field min 26.487565254571
field max 33.42263164963
attr interpolationmode  none
attr title  "Latency time of file print, stats"
attr unit  s
statistic UCACnet.owner[496] 	latency:stats
field count 205
field mean 31.591824673499
field stddev 0.79010124510769
field sum 6476.3240580673
field sqrsum 204726.24320664
field min 23.791250802796
field max 33.177345072508
attr interpolationmode  none
attr title  "Latency time of file print, stats"
attr unit  s
statistic UCACnet.owner[497] 	latency:stats
field count 214
field mean 31.655127320925
field stddev 0.75047388993666
field sum 6774.1972466779
field sqrsum 214558.04029631
field min 24.895265510858
field max 33.187202307805
attr interpolationmode  none
attr title  "Latency time of file print, stats"
attr unit  s
statistic UCACnet.owner[498] 	latency:stats
field count 214
field mean 31.65797348394
field stddev 0.59837179986348
field sum 6774.8063255631
field sqrsum 214552.90341022
field min 29.668855956554
field max 33.085425453493
attr interpolationmode  none
attr title  "Latency time of file print, stats"
attr unit  s
statistic UCACnet.owner[499] 	latency:stats
field count 208
field mean 31.643199333226
field stddev 0.88459545970901
field sum 6581.785461311
field sqrsum 208430.72871015
field min 22.458602273914
field max 33.445962358304
attr interpolationmode  none
attr title  "Latency time of file print, stats"
attr unit  s
