version 2
run Owner-600-0-20110908-17:16:34-5904
attr configname Owner-600
attr datetime 20110908-17:16:34
attr experiment Owner-600
attr inifile nocrypto.ini
attr iterationvars ""
attr iterationvars2 $repetition=0
attr measurement ""
attr network UCACnet
attr processid 5904
attr repetition 0
attr replication #0
attr resultdir results
attr runnumber 0
attr seedset 0

statistic UCACnet.owner[0] 	latency:stats
field count 192
field mean 39.879212671332
field stddev 0.56059207611276
field sum 7656.8088328958
field sqrsum 305407.53215466
field min 38.410530181116
field max 41.473849436696
attr interpolationmode  none
attr title  "Latency time of file print, stats"
attr unit  s
statistic UCACnet.owner[1] 	latency:stats
field count 195
field mean 39.898042998215
field stddev 0.5620511701093
field sum 7780.1183846519
field sqrsum 310472.7827365
field min 38.009783097165
field max 41.790057059376
attr interpolationmode  none
attr title  "Latency time of file print, stats"
attr unit  s
statistic UCACnet.owner[2] 	latency:stats
field count 191
field mean 39.871855867475
field stddev 0.49593673760714
field sum 7615.5244706876
field sqrsum 303691.82516755
field min 38.62579863218
field max 42.086353363742
attr interpolationmode  none
attr title  "Latency time of file print, stats"
attr unit  s
statistic UCACnet.owner[3] 	latency:stats
field count 192
field mean 39.892606194301
field stddev 0.53915010228898
field sum 7659.3803893057
field sqrsum 305608.16598399
field min 38.451827335523
field max 41.498530308048
attr interpolationmode  none
attr title  "Latency time of file print, stats"
attr unit  s
statistic UCACnet.owner[4] 	latency:stats
field count 196
field mean 39.869758596371
field stddev 0.54833807619813
field sum 7814.4726848887
field sqrsum 311619.77106038
field min 38.144449482956
field max 41.819429629508
attr interpolationmode  none
attr title  "Latency time of file print, stats"
attr unit  s
statistic UCACnet.owner[5] 	latency:stats
field count 191
field mean 39.884318080626
field stddev 0.51394504386747
field sum 7617.9047533995
field sqrsum 303885.12279904
field min 38.215098209719
field max 41.283433169411
attr interpolationmode  none
attr title  "Latency time of file print, stats"
attr unit  s
statistic UCACnet.owner[6] 	latency:stats
field count 195
field mean 39.876366975011
field stddev 0.55718748431361
field sum 7775.8915601271
field sqrsum 310134.5342407
field min 38.342544890646
field max 41.401644901496
attr interpolationmode  none
attr title  "Latency time of file print, stats"
attr unit  s
statistic UCACnet.owner[7] 	latency:stats
field count 191
field mean 39.890145115314
field stddev 0.52009662876273
field sum 7619.017717025
field sqrsum 303975.1174639
field min 38.317111750131
field max 41.288020402188
attr interpolationmode  none
attr title  "Latency time of file print, stats"
attr unit  s
statistic UCACnet.owner[8] 	latency:stats
field count 194
field mean 39.885280179419
field stddev 0.49218666791975
field sum 7737.7443548073
field sqrsum 308668.85535741
field min 38.412962866547
field max 41.006644044786
attr interpolationmode  none
attr title  "Latency time of file print, stats"
attr unit  s
statistic UCACnet.owner[9] 	latency:stats
field count 195
field mean 39.850629856859
field stddev 0.58935763676996
field sum 7770.8728220876
field sqrsum 309741.560928
field min 38.255523752895
field max 41.937596680282
attr interpolationmode  none
attr title  "Latency time of file print, stats"
attr unit  s
statistic UCACnet.owner[10] 	latency:stats
field count 190
field mean 39.877733721847
field stddev 0.53584102996084
field sum 7576.7694071509
field sqrsum 302198.65963037
field min 38.449222572063
field max 41.894067937577
attr interpolationmode  none
attr title  "Latency time of file print, stats"
attr unit  s
statistic UCACnet.owner[11] 	latency:stats
field count 195
field mean 39.872232361762
field stddev 0.55651645799879
field sum 7775.0853105436
field sqrsum 310070.09198471
field min 38.080450485444
field max 41.302880387498
attr interpolationmode  none
attr title  "Latency time of file print, stats"
attr unit  s
statistic UCACnet.owner[12] 	latency:stats
field count 186
field mean 39.840990005047
field stddev 0.49894223426292
field sum 7410.4241409388
field sqrsum 295284.68865263
field min 38.390570324787
field max 41.07950960051
attr interpolationmode  none
attr title  "Latency time of file print, stats"
attr unit  s
statistic UCACnet.owner[13] 	latency:stats
field count 196
field mean 39.871410823914
field stddev 0.54349460890923
field sum 7814.7965214872
field sqrsum 311644.56295955
field min 37.05206955284
field max 41.175443626775
attr interpolationmode  none
attr title  "Latency time of file print, stats"
attr unit  s
statistic UCACnet.owner[14] 	latency:stats
field count 194
field mean 39.857905885809
field stddev 0.51784695330415
field sum 7732.4337418469
field sqrsum 308250.37228593
field min 38.39619942542
field max 41.05717510221
attr interpolationmode  none
attr title  "Latency time of file print, stats"
attr unit  s
statistic UCACnet.owner[15] 	latency:stats
field count 193
field mean 39.731482024547
field stddev 1.3287174231204
field sum 7668.1760307376
field sqrsum 305006.97220449
field min 22.887814253285
field max 41.470917997236
attr interpolationmode  none
attr title  "Latency time of file print, stats"
attr unit  s
statistic UCACnet.owner[16] 	latency:stats
field count 189
field mean 39.84776009289
field stddev 0.55247493577462
field sum 7531.2266575563
field sqrsum 300159.89602376
field min 38.482033096192
field max 41.460414463823
attr interpolationmode  none
attr title  "Latency time of file print, stats"
attr unit  s
statistic UCACnet.owner[17] 	latency:stats
field count 195
field mean 39.825904532934
field stddev 0.60107527810436
field sum 7766.051383922
field sqrsum 309360.11156299
field min 36.358099535798
field max 41.13196498844
attr interpolationmode  none
attr title  "Latency time of file print, stats"
attr unit  s
statistic UCACnet.owner[18] 	latency:stats
field count 194
field mean 39.817744684662
field stddev 0.52406898338831
field sum 7724.6424688244
field sqrsum 307630.84872572
field min 38.129309790948
field max 41.464578385041
attr interpolationmode  none
attr title  "Latency time of file print, stats"
attr unit  s
statistic UCACnet.owner[19] 	latency:stats
field count 189
field mean 39.867926351766
field stddev 0.53118310024218
field sum 7535.0380804838
field sqrsum 300459.38848185
field min 38.366369640401
field max 41.210612202873
attr interpolationmode  none
attr title  "Latency time of file print, stats"
attr unit  s
statistic UCACnet.owner[20] 	latency:stats
field count 199
field mean 39.829387619392
field stddev 0.55474296187991
field sum 7926.0481362589
field sqrsum 315750.57598026
field min 38.470770598211
field max 41.938699767985
attr interpolationmode  none
attr title  "Latency time of file print, stats"
attr unit  s
statistic UCACnet.owner[21] 	latency:stats
field count 194
field mean 39.876605844672
field stddev 0.52629514155131
field sum 7736.0615338664
field sqrsum 308541.33498529
field min 38.432812815039
field max 41.671548940966
attr interpolationmode  none
attr title  "Latency time of file print, stats"
attr unit  s
statistic UCACnet.owner[22] 	latency:stats
field count 196
field mean 39.850038678335
field stddev 0.51825718047453
field sum 7810.6075809537
field sqrsum 311305.3893508
field min 38.37192423424
field max 41.405665658686
attr interpolationmode  none
attr title  "Latency time of file print, stats"
attr unit  s
statistic UCACnet.owner[23] 	latency:stats
field count 185
field mean 39.863014526485
field stddev 0.50563264325931
field sum 7374.6576873997
field sqrsum 294023.12876473
field min 38.464685237152
field max 41.287364956834
attr interpolationmode  none
attr title  "Latency time of file print, stats"
attr unit  s
statistic UCACnet.owner[24] 	latency:stats
field count 190
field mean 39.860219047102
field stddev 0.55606334608072
field sum 7573.4416189493
field sqrsum 301937.48188983
field min 37.993680144575
field max 41.480898686502
attr interpolationmode  none
attr title  "Latency time of file print, stats"
attr unit  s
statistic UCACnet.owner[25] 	latency:stats
field count 189
field mean 39.859721560475
field stddev 0.52960310020015
field sum 7533.4873749297
field sqrsum 300335.43927947
field min 38.22337573067
field max 41.492586146204
attr interpolationmode  none
attr title  "Latency time of file print, stats"
attr unit  s
statistic UCACnet.owner[26] 	latency:stats
field count 194
field mean 39.878209224686
field stddev 0.51936339252424
field sum 7736.372589589
field sqrsum 308564.74426612
field min 38.05898050574
field max 41.267408410817
attr interpolationmode  none
attr title  "Latency time of file print, stats"
attr unit  s
statistic UCACnet.owner[27] 	latency:stats
field count 194
field mean 39.866014264335
field stddev 0.53879566314716
field sum 7734.0067672811
field sqrsum 308380.05215285
field min 38.346199558983
field max 41.574329331959
attr interpolationmode  none
attr title  "Latency time of file print, stats"
attr unit  s
statistic UCACnet.owner[28] 	latency:stats
field count 195
field mean 39.772082197129
field stddev 1.2044070108117
field sum 7755.5560284402
field sqrsum 308736.02751962
field min 24.552807389565
field max 41.196486787919
attr interpolationmode  none
attr title  "Latency time of file print, stats"
attr unit  s
statistic UCACnet.owner[29] 	latency:stats
field count 196
field mean 39.83246299465
field stddev 0.54427473905855
field sum 7807.1627469513
field sqrsum 311036.2870345
field min 37.899880981789
field max 41.449070954409
attr interpolationmode  none
attr title  "Latency time of file print, stats"
attr unit  s
statistic UCACnet.owner[30] 	latency:stats
field count 197
field mean 39.743352029898
field stddev 1.1014444176984
field sum 7829.4403498899
field sqrsum 311405.9872646
field min 26.152050682973
field max 41.024948621366
attr interpolationmode  none
attr title  "Latency time of file print, stats"
attr unit  s
statistic UCACnet.owner[31] 	latency:stats
field count 192
field mean 39.851367949911
field stddev 0.51827833300725
field sum 7651.4626463829
field sqrsum 304972.55825022
field min 38.345239804191
field max 41.923535861135
attr interpolationmode  none
attr title  "Latency time of file print, stats"
attr unit  s
statistic UCACnet.owner[32] 	latency:stats
field count 192
field mean 39.749744261897
field stddev 1.7324490057732
field sum 7631.9508982842
field sqrsum 303941.35992166
field min 16.903405060225
field max 41.35455898358
attr interpolationmode  none
attr title  "Latency time of file print, stats"
attr unit  s
statistic UCACnet.owner[33] 	latency:stats
field count 193
field mean 39.840829472871
field stddev 0.52065486663889
field sum 7689.2800882641
field sqrsum 306399.34441179
field min 38.048195923389
field max 41.567658881548
attr interpolationmode  none
attr title  "Latency time of file print, stats"
attr unit  s
statistic UCACnet.owner[34] 	latency:stats
field count 191
field mean 39.843962170324
field stddev 0.5356053821541
field sum 7610.1967745319
field sqrsum 303274.898287
field min 38.422946889837
field max 41.521924381283
attr interpolationmode  none
attr title  "Latency time of file print, stats"
attr unit  s
statistic UCACnet.owner[35] 	latency:stats
field count 196
field mean 39.827907080361
field stddev 0.53064699106606
field sum 7806.2697877508
field sqrsum 310962.29706545
field min 38.205442987548
field max 41.359177713524
attr interpolationmode  none
attr title  "Latency time of file print, stats"
attr unit  s
statistic UCACnet.owner[36] 	latency:stats
field count 190
field mean 39.85675905434
field stddev 0.53004800148914
field sum 7572.7842203246
field sqrsum 301879.73575704
field min 38.343779695007
field max 41.889818357842
attr interpolationmode  none
attr title  "Latency time of file print, stats"
attr unit  s
statistic UCACnet.owner[37] 	latency:stats
field count 197
field mean 39.819964056072
field stddev 0.83177243806606
field sum 7844.5329190461
field sqrsum 312504.62056928
field min 30.641352407566
field max 41.425875716112
attr interpolationmode  none
attr title  "Latency time of file print, stats"
attr unit  s
statistic UCACnet.owner[38] 	latency:stats
field count 196
field mean 39.868764024785
field stddev 0.55278488312885
field sum 7814.2777488579
field sqrsum 311605.18196312
field min 38.466131685657
field max 41.389308432048
attr interpolationmode  none
attr title  "Latency time of file print, stats"
attr unit  s
statistic UCACnet.owner[39] 	latency:stats
field count 189
field mean 39.879106381218
field stddev 0.55332386448929
field sum 7537.1511060502
field sqrsum 300632.4102217
field min 38.169582154642
field max 41.222738785098
attr interpolationmode  none
attr title  "Latency time of file print, stats"
attr unit  s
statistic UCACnet.owner[40] 	latency:stats
field count 192
field mean 39.852959339125
field stddev 0.54841550693185
field sum 7651.7681931121
field sqrsum 305003.05175004
field min 38.315195160135
field max 41.399938390831
attr interpolationmode  none
attr title  "Latency time of file print, stats"
attr unit  s
statistic UCACnet.owner[41] 	latency:stats
field count 195
field mean 39.846255809346
field stddev 0.54837757530186
field sum 7770.0198828224
field sqrsum 309664.53917987
field min 38.290859034358
field max 41.511784060896
attr interpolationmode  none
attr title  "Latency time of file print, stats"
attr unit  s
statistic UCACnet.owner[42] 	latency:stats
field count 194
field mean 39.882149728338
field stddev 0.55243924767825
field sum 7737.1370472975
field sqrsum 308632.55968961
field min 38.409350308517
field max 41.8412653736
attr interpolationmode  none
attr title  "Latency time of file print, stats"
attr unit  s
statistic UCACnet.owner[43] 	latency:stats
field count 195
field mean 39.875223368255
field stddev 0.51203514416381
field sum 7775.6685568097
field sqrsum 310107.38345814
field min 38.472425751749
field max 41.81964019529
attr interpolationmode  none
attr title  "Latency time of file print, stats"
attr unit  s
statistic UCACnet.owner[44] 	latency:stats
field count 195
field mean 39.830132122737
field stddev 0.5039312242072
field sum 7766.8757639336
field sqrsum 309404.95351403
field min 38.095384158769
field max 41.170282550418
attr interpolationmode  none
attr title  "Latency time of file print, stats"
attr unit  s
statistic UCACnet.owner[45] 	latency:stats
field count 193
field mean 39.847614883053
field stddev 0.54496602804538
field sum 7690.5896724292
field sqrsum 306508.67718111
field min 38.399355008934
field max 41.573616749004
attr interpolationmode  none
attr title  "Latency time of file print, stats"
attr unit  s
statistic UCACnet.owner[46] 	latency:stats
field count 196
field mean 39.883983278831
field stddev 0.55229239042267
field sum 7817.2607226509
field sqrsum 311842.97619095
field min 38.414430175209
field max 41.934301204314
attr interpolationmode  none
attr title  "Latency time of file print, stats"
attr unit  s
statistic UCACnet.owner[47] 	latency:stats
field count 198
field mean 39.880899491958
field stddev 0.5514554255718
field sum 7896.4180994077
field sqrsum 314976.16487698
field min 38.246289375038
field max 42.044271527113
attr interpolationmode  none
attr title  "Latency time of file print, stats"
attr unit  s
statistic UCACnet.owner[48] 	latency:stats
field count 195
field mean 39.818919793097
field stddev 0.94291424988604
field sum 7764.6893596539
field sqrsum 309354.0257632
field min 28.874916849835
field max 41.371632482467
attr interpolationmode  none
attr title  "Latency time of file print, stats"
attr unit  s
statistic UCACnet.owner[49] 	latency:stats
field count 196
field mean 39.870733959196
field stddev 0.57827744423765
field sum 7814.6638560024
field sqrsum 311641.5925197
field min 38.413702345761
field max 42.133383921979
attr interpolationmode  none
attr title  "Latency time of file print, stats"
attr unit  s
statistic UCACnet.owner[50] 	latency:stats
field count 193
field mean 39.863854167155
field stddev 0.55455523669964
field sum 7693.7238542609
field sqrsum 306760.53177864
field min 38.314751625628
field max 41.925342200723
attr interpolationmode  none
attr title  "Latency time of file print, stats"
attr unit  s
statistic UCACnet.owner[51] 	latency:stats
field count 195
field mean 39.848425524177
field stddev 0.53428529680653
field sum 7770.4429772145
field sqrsum 309695.2976584
field min 38.112079206623
field max 41.662448993794
attr interpolationmode  none
attr title  "Latency time of file print, stats"
attr unit  s
statistic UCACnet.owner[52] 	latency:stats
field count 195
field mean 39.791071487393
field stddev 0.82725722982133
field sum 7759.2589400416
field sqrsum 308881.9919501
field min 30.876364139215
field max 41.421652677754
attr interpolationmode  none
attr title  "Latency time of file print, stats"
attr unit  s
statistic UCACnet.owner[53] 	latency:stats
field count 193
field mean 39.812336758051
field stddev 0.49755362693135
field sum 7683.7809943039
field sqrsum 305956.80796578
field min 38.175138104929
field max 41.121314359542
attr interpolationmode  none
attr title  "Latency time of file print, stats"
attr unit  s
statistic UCACnet.owner[54] 	latency:stats
field count 194
field mean 39.860806692679
field stddev 0.54871457115698
field sum 7732.9964983796
field sqrsum 308301.58849943
field min 38.41100006359
field max 41.289149591556
attr interpolationmode  none
attr title  "Latency time of file print, stats"
attr unit  s
statistic UCACnet.owner[55] 	latency:stats
field count 195
field mean 39.889684235568
field stddev 0.56870357947578
field sum 7778.4884259357
field sqrsum 310344.19135029
field min 38.410184490846
field max 42.024014143278
attr interpolationmode  none
attr title  "Latency time of file print, stats"
attr unit  s
statistic UCACnet.owner[56] 	latency:stats
field count 190
field mean 39.851548032757
field stddev 0.51970406025451
field sum 7571.7941262239
field sqrsum 301798.764762
field min 38.745081247554
field max 41.553053354022
attr interpolationmode  none
attr title  "Latency time of file print, stats"
attr unit  s
statistic UCACnet.owner[57] 	latency:stats
field count 197
field mean 39.836533588004
field stddev 0.99926782594845
field sum 7847.7971168368
field sqrsum 312824.74652955
field min 28.038199337889
field max 41.487932314656
attr interpolationmode  none
attr title  "Latency time of file print, stats"
attr unit  s
statistic UCACnet.owner[58] 	latency:stats
field count 192
field mean 39.857260161598
field stddev 0.52118144993373
field sum 7652.5939510269
field sqrsum 305063.30936697
field min 38.062497147995
field max 41.128619880337
attr interpolationmode  none
attr title  "Latency time of file print, stats"
attr unit  s
statistic UCACnet.owner[59] 	latency:stats
field count 192
field mean 39.859540749704
field stddev 0.48275868627876
field sum 7653.0318239432
field sqrsum 305090.84753154
field min 38.524668336342
field max 41.191902561899
attr interpolationmode  none
attr title  "Latency time of file print, stats"
attr unit  s
statistic UCACnet.owner[60] 	latency:stats
field count 193
field mean 39.813849085722
field stddev 0.60855736026365
field sum 7684.0728735444
field sqrsum 306003.62342665
field min 36.02885742269
field max 41.303846869987
attr interpolationmode  none
attr title  "Latency time of file print, stats"
attr unit  s
statistic UCACnet.owner[61] 	latency:stats
field count 193
field mean 39.790745137149
field stddev 0.73222819844984
field sum 7679.6138114697
field sqrsum 305680.49828576
field min 33.023628123911
field max 41.285046372522
attr interpolationmode  none
attr title  "Latency time of file print, stats"
attr unit  s
statistic UCACnet.owner[62] 	latency:stats
field count 187
field mean 39.876212991617
field stddev 0.52836243148115
field sum 7456.8518294325
field sqrsum 297402.93683316
field min 38.421982289825
field max 41.949112686699
attr interpolationmode  none
attr title  "Latency time of file print, stats"
attr unit  s
statistic UCACnet.owner[63] 	latency:stats
field count 197
field mean 39.896714692841
field stddev 0.54459233469449
field sum 7859.6527944897
field sqrsum 313632.45496551
field min 38.404852986632
field max 42.092759097976
attr interpolationmode  none
attr title  "Latency time of file print, stats"
attr unit  s
statistic UCACnet.owner[64] 	latency:stats
field count 192
field mean 39.837613416484
field stddev 0.55261737125368
field sum 7648.8217759649
field sqrsum 304769.13372064
field min 38.154503116384
field max 41.207539242713
attr interpolationmode  none
attr title  "Latency time of file print, stats"
attr unit  s
statistic UCACnet.owner[65] 	latency:stats
field count 194
field mean 39.83778185618
field stddev 0.66870730763317
field sum 7728.5296800989
field sqrsum 307973.78317121
field min 34.48517603685
field max 41.322862513678
attr interpolationmode  none
attr title  "Latency time of file print, stats"
attr unit  s
statistic UCACnet.owner[66] 	latency:stats
field count 193
field mean 39.888701728547
field stddev 0.54780815530869
field sum 7698.5194336095
field sqrsum 307141.56344348
field min 38.008080457998
field max 41.466313888093
attr interpolationmode  none
attr title  "Latency time of file print, stats"
attr unit  s
statistic UCACnet.owner[67] 	latency:stats
field count 197
field mean 39.799093159447
field stddev 0.86406277842242
field sum 7840.421352411
field sqrsum 312187.99429299
field min 30.112880671293
field max 41.295395368786
attr interpolationmode  none
attr title  "Latency time of file print, stats"
attr unit  s
statistic UCACnet.owner[68] 	latency:stats
field count 192
field mean 39.748801024732
field stddev 1.777135053113
field sum 7631.7697967486
field sqrsum 303956.91703595
field min 16.355975252205
field max 41.273193903706
attr interpolationmode  none
attr title  "Latency time of file print, stats"
attr unit  s
statistic UCACnet.owner[69] 	latency:stats
field count 200
field mean 39.854382209834
field stddev 0.53518216229357
field sum 7970.8764419669
field sqrsum 317731.35383493
field min 37.617952837448
field max 41.204174409548
attr interpolationmode  none
attr title  "Latency time of file print, stats"
attr unit  s
statistic UCACnet.owner[70] 	latency:stats
field count 198
field mean 39.866968660701
field stddev 0.57093413361509
field sum 7893.6597948188
field sqrsum 314760.50291791
field min 38.249187633623
field max 41.883851553558
attr interpolationmode  none
attr title  "Latency time of file print, stats"
attr unit  s
statistic UCACnet.owner[71] 	latency:stats
field count 194
field mean 39.803573425185
field stddev 0.81215383961122
field sum 7721.893244486
field sqrsum 307486.24635317
field min 31.270296049756
field max 41.145957209282
attr interpolationmode  none
attr title  "Latency time of file print, stats"
attr unit  s
statistic UCACnet.owner[72] 	latency:stats
field count 194
field mean 39.860404800351
field stddev 0.55217008219122
field sum 7732.9185312682
field sqrsum 308296.10706182
field min 38.184667024006
field max 41.865694172466
attr interpolationmode  none
attr title  "Latency time of file print, stats"
attr unit  s
statistic UCACnet.owner[73] 	latency:stats
field count 193
field mean 39.842498474577
field stddev 0.63569811951086
field sum 7689.6022055933
field sqrsum 306450.55366949
field min 34.657241623467
field max 41.390096237478
attr interpolationmode  none
attr title  "Latency time of file print, stats"
attr unit  s
statistic UCACnet.owner[74] 	latency:stats
field count 197
field mean 39.837475430355
field stddev 0.56084505048874
field sum 7847.9826597799
field sqrsum 312705.46763228
field min 38.074093677439
field max 41.822181170533
attr interpolationmode  none
attr title  "Latency time of file print, stats"
attr unit  s
statistic UCACnet.owner[75] 	latency:stats
field count 186
field mean 39.872741618188
field stddev 0.50694851719362
field sum 7416.3299409831
field sqrsum 295756.95189988
field min 37.935709021797
field max 41.376375301015
attr interpolationmode  none
attr title  "Latency time of file print, stats"
attr unit  s
statistic UCACnet.owner[76] 	latency:stats
field count 189
field mean 39.907970276486
field stddev 0.5405264650456
field sum 7542.6063822559
field sqrsum 301065.03905587
field min 38.06041656611
field max 41.513553942669
attr interpolationmode  none
attr title  "Latency time of file print, stats"
attr unit  s
statistic UCACnet.owner[77] 	latency:stats
field count 193
field mean 39.886411688068
field stddev 0.51137223007047
field sum 7698.077455797
field sqrsum 307098.89490763
field min 38.421351723032
field max 41.309734399477
attr interpolationmode  none
attr title  "Latency time of file print, stats"
attr unit  s
statistic UCACnet.owner[78] 	latency:stats
field count 197
field mean 39.869711593025
field stddev 0.54719324877409
field sum 7854.3331838259
field sqrsum 313208.68520316
field min 38.557393406286
field max 42.120271397215
attr interpolationmode  none
attr title  "Latency time of file print, stats"
attr unit  s
statistic UCACnet.owner[79] 	latency:stats
field count 197
field mean 39.833204957297
field stddev 0.50353804974378
field sum 7847.1413765874
field sqrsum 312626.48669373
field min 38.291955251671
field max 41.365715059466
attr interpolationmode  none
attr title  "Latency time of file print, stats"
attr unit  s
statistic UCACnet.owner[80] 	latency:stats
field count 196
field mean 39.860768728326
field stddev 0.52050754746815
field sum 7812.7106707519
field sqrsum 311473.48416902
field min 38.3795492972
field max 41.27771444802
attr interpolationmode  none
attr title  "Latency time of file print, stats"
attr unit  s
statistic UCACnet.owner[81] 	latency:stats
field count 195
field mean 39.846049668484
field stddev 0.56265846027955
field sum 7769.9796853545
field sqrsum 309664.41386708
field min 38.238840459653
field max 41.878715109248
attr interpolationmode  none
attr title  "Latency time of file print, stats"
attr unit  s
statistic UCACnet.owner[82] 	latency:stats
field count 192
field mean 39.830119310743
field stddev 0.53088693070698
field sum 7647.3829076626
field sqrsum 304650.00524537
field min 38.59451998448
field max 41.201240452849
attr interpolationmode  none
attr title  "Latency time of file print, stats"
attr unit  s
statistic UCACnet.owner[83] 	latency:stats
field count 190
field mean 39.859988928372
field stddev 0.54382826708966
field sum 7573.3978963908
field sqrsum 301931.45289609
field min 38.429865932528
field max 41.447647728115
attr interpolationmode  none
attr title  "Latency time of file print, stats"
attr unit  s
statistic UCACnet.owner[84] 	latency:stats
field count 193
field mean 39.83901549023
field stddev 0.51435249494463
field sum 7688.9299896144
field sqrsum 306370.19618944
field min 38.394503468229
field max 42.134582949645
attr interpolationmode  none
attr title  "Latency time of file print, stats"
attr unit  s
statistic UCACnet.owner[85] 	latency:stats
field count 193
field mean 39.762831633076
field stddev 1.0534806501912
field sum 7674.2265051837
field sqrsum 305362.06216394
field min 27.434048686464
field max 41.386724435216
attr interpolationmode  none
attr title  "Latency time of file print, stats"
attr unit  s
statistic UCACnet.owner[86] 	latency:stats
field count 193
field mean 39.74353774818
field stddev 1.3106093580923
field sum 7670.5027853988
field sqrsum 305182.71480181
field min 23.130508039552
field max 41.424425005956
attr interpolationmode  none
attr title  "Latency time of file print, stats"
attr unit  s
statistic UCACnet.owner[87] 	latency:stats
field count 192
field mean 39.892635306377
field stddev 0.51924101257419
field sum 7659.3859788243
field sqrsum 305604.58726878
field min 38.331616639532
field max 41.066223483871
attr interpolationmode  none
attr title  "Latency time of file print, stats"
attr unit  s
statistic UCACnet.owner[88] 	latency:stats
field count 195
field mean 39.83148094429
field stddev 0.55035088131426
field sum 7767.1387841366
field sqrsum 309435.40037395
field min 37.987452539246
field max 41.968536268706
attr interpolationmode  none
attr title  "Latency time of file print, stats"
attr unit  s
statistic UCACnet.owner[89] 	latency:stats
field count 191
field mean 39.867973986567
field stddev 0.51590191462437
field sum 7614.7830314343
field sqrsum 303636.54121982
field min 38.1617532576
field max 42.00931962934
attr interpolationmode  none
attr title  "Latency time of file print, stats"
attr unit  s
statistic UCACnet.owner[90] 	latency:stats
field count 190
field mean 39.91900857155
field stddev 0.55496739985498
field sum 7584.6116285944
field sqrsum 302828.38649975
field min 38.500146420835
field max 41.963686487343
attr interpolationmode  none
attr title  "Latency time of file print, stats"
attr unit  s
statistic UCACnet.owner[91] 	latency:stats
field count 185
field mean 39.819018527377
field stddev 0.75979187157909
field sum 7366.5184275647
field sqrsum 293433.75394808
field min 32.301400284037
field max 41.156640442021
attr interpolationmode  none
attr title  "Latency time of file print, stats"
attr unit  s
statistic UCACnet.owner[92] 	latency:stats
field count 195
field mean 39.808963730491
field stddev 0.66176968222532
field sum 7762.7479274457
field sqrsum 309111.91088042
field min 34.135593883388
field max 41.153474775611
attr interpolationmode  none
attr title  "Latency time of file print, stats"
attr unit  s
statistic UCACnet.owner[93] 	latency:stats
field count 197
field mean 39.865229612416
field stddev 0.52691768631182
field sum 7853.450233646
field sqrsum 313134.01469462
field min 38.299746067453
field max 41.236653336581
attr interpolationmode  none
attr title  "Latency time of file print, stats"
attr unit  s
statistic UCACnet.owner[94] 	latency:stats
field count 194
field mean 39.800880984131
field stddev 0.89229380091381
field sum 7721.3709109215
field sqrsum 307471.02898776
field min 29.643374059931
field max 41.369836921177
attr interpolationmode  none
attr title  "Latency time of file print, stats"
attr unit  s
statistic UCACnet.owner[95] 	latency:stats
field count 192
field mean 39.892147287814
field stddev 0.4975955546418
field sum 7659.2922792602
field sqrsum 305592.90757984
field min 38.167801271408
field max 42.047234046305
attr interpolationmode  none
attr title  "Latency time of file print, stats"
attr unit  s
statistic UCACnet.owner[96] 	latency:stats
field count 193
field mean 39.840804087523
field stddev 0.55635015159289
field sum 7689.2751888919
field sqrsum 306406.33527
field min 37.438041301389
field max 41.131355515136
attr interpolationmode  none
attr title  "Latency time of file print, stats"
attr unit  s
statistic UCACnet.owner[97] 	latency:stats
field count 191
field mean 39.900530603814
field stddev 0.55036752454333
field sum 7621.0013453285
field sqrsum 304139.54924928
field min 38.555207356871
field max 41.853045346501
attr interpolationmode  none
attr title  "Latency time of file print, stats"
attr unit  s
statistic UCACnet.owner[98] 	latency:stats
field count 194
field mean 39.835788246155
field stddev 0.51598845828041
field sum 7728.1429197541
field sqrsum 307908.04999654
field min 38.481808853901
field max 41.221051666061
attr interpolationmode  none
attr title  "Latency time of file print, stats"
attr unit  s
statistic UCACnet.owner[99] 	latency:stats
field count 194
field mean 39.855813387879
field stddev 0.52411795444109
field sum 7732.0277972485
field sqrsum 308219.27402565
field min 37.666535371175
field max 41.288345240262
attr interpolationmode  none
attr title  "Latency time of file print, stats"
attr unit  s
statistic UCACnet.owner[100] 	latency:stats
field count 195
field mean 39.870270892012
field stddev 0.50047248097768
field sum 7774.7028239424
field sqrsum 310028.0994001
field min 38.402226769995
field max 41.583383008939
attr interpolationmode  none
attr title  "Latency time of file print, stats"
attr unit  s
statistic UCACnet.owner[101] 	latency:stats
field count 195
field mean 39.780525831458
field stddev 1.5125499822985
field sum 7757.2025371344
field sqrsum 309029.43055342
field min 20.159829380085
field max 41.519227509192
attr interpolationmode  none
attr title  "Latency time of file print, stats"
attr unit  s
statistic UCACnet.owner[102] 	latency:stats
field count 191
field mean 39.865080882169
field stddev 0.56481327226416
field sum 7614.2304484943
field sqrsum 303602.52535088
field min 38.356193507481
field max 41.181863345966
attr interpolationmode  none
attr title  "Latency time of file print, stats"
attr unit  s
statistic UCACnet.owner[103] 	latency:stats
field count 196
field mean 39.857703500125
field stddev 0.52564125748627
field sum 7812.1098860244
field sqrsum 311426.63780021
field min 38.508589649904
field max 41.88695089255
attr interpolationmode  none
attr title  "Latency time of file print, stats"
attr unit  s
statistic UCACnet.owner[104] 	latency:stats
field count 191
field mean 39.900745503366
field stddev 0.5434221631488
field sum 7621.0423911428
field sqrsum 304141.38137236
field min 38.435341326316
field max 41.444790778903
attr interpolationmode  none
attr title  "Latency time of file print, stats"
attr unit  s
statistic UCACnet.owner[105] 	latency:stats
field count 192
field mean 39.859710273655
field stddev 0.49729908281227
field sum 7653.0643725418
field sqrsum 305096.1641133
field min 38.413142735522
field max 41.500498936973
attr interpolationmode  none
attr title  "Latency time of file print, stats"
attr unit  s
statistic UCACnet.owner[106] 	latency:stats
field count 196
field mean 39.802120880634
field stddev 1.0071059663891
field sum 7801.2156926043
field sqrsum 310702.71118631
field min 27.791309862655
field max 41.206237811349
attr interpolationmode  none
attr title  "Latency time of file print, stats"
attr unit  s
statistic UCACnet.owner[107] 	latency:stats
field count 196
field mean 39.84963492972
field stddev 0.54299624968082
field sum 7810.5284462252
field sqrsum 311304.20195107
field min 38.148452735171
field max 41.903396810693
attr interpolationmode  none
attr title  "Latency time of file print, stats"
attr unit  s
statistic UCACnet.owner[108] 	latency:stats
field count 193
field mean 39.785987527592
field stddev 0.67994289486481
field sum 7678.6955928252
field sqrsum 305593.25297365
field min 34.04864575646
field max 41.33593812593
attr interpolationmode  none
attr title  "Latency time of file print, stats"
attr unit  s
statistic UCACnet.owner[109] 	latency:stats
field count 197
field mean 39.839653385132
field stddev 0.54959697435932
field sum 7848.411716871
field sqrsum 312737.20556345
field min 38.336344546875
field max 41.879468490014
attr interpolationmode  none
attr title  "Latency time of file print, stats"
attr unit  s
statistic UCACnet.owner[110] 	latency:stats
field count 192
field mean 39.826205315715
field stddev 0.7779639422722
field sum 7646.6314206173
field sqrsum 304651.91145914
field min 31.880525489959
field max 41.187662119205
attr interpolationmode  none
attr title  "Latency time of file print, stats"
attr unit  s
statistic UCACnet.owner[111] 	latency:stats
field count 188
field mean 39.878948101021
field stddev 0.50409126940331
field sum 7497.2422429919
field sqrsum 299029.65250653
field min 38.36078441407
field max 41.120096340162
attr interpolationmode  none
attr title  "Latency time of file print, stats"
attr unit  s
statistic UCACnet.owner[112] 	latency:stats
field count 194
field mean 39.89802065764
field stddev 0.56456774962259
field sum 7740.2160075822
field sqrsum 308880.81435669
field min 38.455350563982
field max 41.932233793274
attr interpolationmode  none
attr title  "Latency time of file print, stats"
attr unit  s
statistic UCACnet.owner[113] 	latency:stats
field count 195
field mean 39.860615470689
field stddev 0.53348085263751
field sum 7772.8200167843
field sqrsum 309884.60256502
field min 38.432522358508
field max 41.638502407958
attr interpolationmode  none
attr title  "Latency time of file print, stats"
attr unit  s
statistic UCACnet.owner[114] 	latency:stats
field count 191
field mean 39.823574587289
field stddev 0.62400789230677
field sum 7606.3027461721
field sqrsum 302984.14805712
field min 35.646855611543
field max 41.175394263431
attr interpolationmode  none
attr title  "Latency time of file print, stats"
attr unit  s
statistic UCACnet.owner[115] 	latency:stats
field count 191
field mean 39.90092113814
field stddev 0.50989623276602
field sum 7621.0759373848
field sqrsum 304137.34885732
field min 38.419009715213
field max 41.116120252404
attr interpolationmode  none
attr title  "Latency time of file print, stats"
attr unit  s
statistic UCACnet.owner[116] 	latency:stats
field count 198
field mean 39.83831290618
field stddev 0.52477940700804
field sum 7887.9859554237
field sqrsum 314298.30519665
field min 38.120732977013
field max 41.336168421073
attr interpolationmode  none
attr title  "Latency time of file print, stats"
attr unit  s
statistic UCACnet.owner[117] 	latency:stats
field count 199
field mean 39.849705015593
field stddev 0.51656614715922
field sum 7930.0912981031
field sqrsum 316064.63341184
field min 38.207924435452
field max 41.581029534711
attr interpolationmode  none
attr title  "Latency time of file print, stats"
attr unit  s
statistic UCACnet.owner[118] 	latency:stats
field count 194
field mean 39.858376626115
field stddev 0.62056143617526
field sum 7732.5250654664
field sqrsum 308280.21995398
field min 35.376890859426
field max 41.246140646421
attr interpolationmode  none
attr title  "Latency time of file print, stats"
attr unit  s
statistic UCACnet.owner[119] 	latency:stats
field count 190
field mean 39.886189012895
field stddev 0.54392383326533
field sum 7578.37591245
field sqrsum 302328.45029753
field min 38.067294046498
field max 41.913020203509
attr interpolationmode  none
attr title  "Latency time of file print, stats"
attr unit  s
statistic UCACnet.owner[120] 	latency:stats
field count 193
field mean 39.811730651002
field stddev 0.78027720078828
field sum 7683.6640156433
field sqrsum 306016.85804552
field min 31.698386382754
field max 41.006144195375
attr interpolationmode  none
attr title  "Latency time of file print, stats"
attr unit  s
statistic UCACnet.owner[121] 	latency:stats
field count 197
field mean 39.846774892558
field stddev 0.54175582045206
field sum 7849.814653834
field sqrsum 312847.32333595
field min 37.918648644991
field max 41.286794384916
attr interpolationmode  none
attr title  "Latency time of file print, stats"
attr unit  s
statistic UCACnet.owner[122] 	latency:stats
field count 195
field mean 39.790467362712
field stddev 0.97567110244478
field sum 7759.1411357288
field sqrsum 308924.52733932
field min 28.426106846291
field max 41.233626293625
attr interpolationmode  none
attr title  "Latency time of file print, stats"
attr unit  s
statistic UCACnet.owner[123] 	latency:stats
field count 195
field mean 39.887570393766
field stddev 0.53917973781209
field sum 7778.0762267844
field sqrsum 310304.96169314
field min 38.382363208264
field max 41.969977928882
attr interpolationmode  none
attr title  "Latency time of file print, stats"
attr unit  s
statistic UCACnet.owner[124] 	latency:stats
field count 192
field mean 39.889964806431
field stddev 0.50693485798908
field sum 7658.8732428347
field sqrsum 305561.26785708
field min 38.335876958633
field max 41.98893897272
attr interpolationmode  none
attr title  "Latency time of file print, stats"
attr unit  s
statistic UCACnet.owner[125] 	latency:stats
field count 194
field mean 39.863143242012
field stddev 0.56322604477282
field sum 7733.4497889504
field sqrsum 308340.8408423
field min 37.430102510473
field max 41.141399257465
attr interpolationmode  none
attr title  "Latency time of file print, stats"
attr unit  s
statistic UCACnet.owner[126] 	latency:stats
field count 191
field mean 39.80928213232
field stddev 0.85560081031579
field sum 7603.5728872731
field sqrsum 302831.86830497
field min 30.498538251694
field max 41.192099583556
attr interpolationmode  none
attr title  "Latency time of file print, stats"
attr unit  s
statistic UCACnet.owner[127] 	latency:stats
field count 194
field mean 39.870486168579
field stddev 0.54703228286411
field sum 7734.8743167043
field sqrsum 308450.95361332
field min 38.13872333048
field max 41.90730761149
attr interpolationmode  none
attr title  "Latency time of file print, stats"
attr unit  s
statistic UCACnet.owner[128] 	latency:stats
field count 194
field mean 39.795676371339
field stddev 0.7022228581284
field sum 7720.3612160397
field sqrsum 307332.16799325
field min 33.586854979143
field max 41.378808182094
attr interpolationmode  none
attr title  "Latency time of file print, stats"
attr unit  s
statistic UCACnet.owner[129] 	latency:stats
field count 190
field mean 39.874530379555
field stddev 0.53505690832231
field sum 7576.1607721154
field sqrsum 302149.96090229
field min 38.188230319368
field max 41.396658571496
attr interpolationmode  none
attr title  "Latency time of file print, stats"
attr unit  s
statistic UCACnet.owner[130] 	latency:stats
field count 191
field mean 39.871906942696
field stddev 0.5667061171364
field sum 7615.5342260549
field sqrsum 303706.89158658
field min 38.096043186836
field max 41.401233032035
attr interpolationmode  none
attr title  "Latency time of file print, stats"
attr unit  s
statistic UCACnet.owner[131] 	latency:stats
field count 195
field mean 39.846654127628
field stddev 0.57931362638743
field sum 7770.0975548875
field sqrsum 309677.49703741
field min 38.207041795166
field max 41.960967135433
attr interpolationmode  none
attr title  "Latency time of file print, stats"
attr unit  s
statistic UCACnet.owner[132] 	latency:stats
field count 196
field mean 39.865253803075
field stddev 0.55146163806392
field sum 7813.5897454026
field sqrsum 311550.03975154
field min 38.439365043939
field max 41.61634436705
attr interpolationmode  none
attr title  "Latency time of file print, stats"
attr unit  s
statistic UCACnet.owner[133] 	latency:stats
field count 194
field mean 39.768653736858
field stddev 1.8445381573797
field sum 7715.1188249504
field sqrsum 307476.53704388
field min 15.255015159907
field max 41.165649279601
attr interpolationmode  none
attr title  "Latency time of file print, stats"
attr unit  s
statistic UCACnet.owner[134] 	latency:stats
field count 193
field mean 39.825835205964
field stddev 1.0688839952856
field sum 7686.386194751
field sqrsum 306336.11241666
field min 27.152212128966
field max 41.475250803472
attr interpolationmode  none
attr title  "Latency time of file print, stats"
attr unit  s
statistic UCACnet.owner[135] 	latency:stats
field count 194
field mean 39.846467416723
field stddev 0.53219375301569
field sum 7730.2146788443
field sqrsum 308076.41075166
field min 37.972786148004
field max 41.910641602652
attr interpolationmode  none
attr title  "Latency time of file print, stats"
attr unit  s
statistic UCACnet.owner[136] 	latency:stats
field count 194
field mean 39.870684188706
field stddev 0.54083370187559
field sum 7734.9127326089
field sqrsum 308452.71550002
field min 38.098116529766
field max 41.401471751372
attr interpolationmode  none
attr title  "Latency time of file print, stats"
attr unit  s
statistic UCACnet.owner[137] 	latency:stats
field count 189
field mean 39.859856953039
field stddev 0.55243202111961
field sum 7533.5129641244
field sqrsum 300342.1231578
field min 38.273442547299
field max 41.981517286676
attr interpolationmode  none
attr title  "Latency time of file print, stats"
attr unit  s
statistic UCACnet.owner[138] 	latency:stats
field count 192
field mean 39.789676387456
field stddev 1.0548205039216
field sum 7639.6178663916
field sqrsum 304190.43806999
field min 27.133313191126
field max 41.512500679859
attr interpolationmode  none
attr title  "Latency time of file print, stats"
attr unit  s
statistic UCACnet.owner[139] 	latency:stats
field count 194
field mean 39.843405811969
field stddev 0.54479604903561
field sum 7729.620727522
field sqrsum 308031.69834713
field min 38.179853191222
field max 41.369101513565
attr interpolationmode  none
attr title  "Latency time of file print, stats"
attr unit  s
statistic UCACnet.owner[140] 	latency:stats
field count 192
field mean 39.785348029654
field stddev 0.49695535518735
field sum 7638.7868216936
field sqrsum 303958.9624688
field min 38.463346348371
field max 41.199743325022
attr interpolationmode  none
attr title  "Latency time of file print, stats"
attr unit  s
statistic UCACnet.owner[141] 	latency:stats
field count 198
field mean 39.90756716221
field stddev 0.49532706065172
field sum 7901.6982981175
field sqrsum 315385.88926035
field min 38.540044887126
field max 41.030447936293
attr interpolationmode  none
attr title  "Latency time of file print, stats"
attr unit  s
statistic UCACnet.owner[142] 	latency:stats
field count 189
field mean 39.813803659129
field stddev 0.52954456231488
field sum 7524.8088915754
field sqrsum 299643.98226102
field min 38.386661926151
field max 41.384301054028
attr interpolationmode  none
attr title  "Latency time of file print, stats"
attr unit  s
statistic UCACnet.owner[143] 	latency:stats
field count 191
field mean 39.859360132859
field stddev 0.52944364258166
field sum 7613.1377853761
field sqrsum 303508.05973681
field min 38.060997880582
field max 41.456620909259
attr interpolationmode  none
attr title  "Latency time of file print, stats"
attr unit  s
statistic UCACnet.owner[144] 	latency:stats
field count 190
field mean 39.846020655505
field stddev 0.52608957637935
field sum 7570.7439245459
field sqrsum 301716.3283708
field min 38.36637193678
field max 41.180906968742
attr interpolationmode  none
attr title  "Latency time of file print, stats"
attr unit  s
statistic UCACnet.owner[145] 	latency:stats
field count 197
field mean 39.784725610491
field stddev 1.3454880369193
field sum 7837.5909452666
field sqrsum 312171.23146397
field min 22.520391679978
field max 41.404087463154
attr interpolationmode  none
attr title  "Latency time of file print, stats"
attr unit  s
statistic UCACnet.owner[146] 	latency:stats
field count 195
field mean 39.850504524762
field stddev 0.55064070203923
field sum 7770.8483823286
field sqrsum 309731.05042668
field min 38.384895881735
field max 41.794875975202
attr interpolationmode  none
attr title  "Latency time of file print, stats"
attr unit  s
statistic UCACnet.owner[147] 	latency:stats
field count 195
field mean 39.883006245012
field stddev 0.51214772824262
field sum 7777.1862177774
field sqrsum 310228.45177958
field min 38.377467620636
field max 41.456477535679
attr interpolationmode  none
attr title  "Latency time of file print, stats"
attr unit  s
statistic UCACnet.owner[148] 	latency:stats
field count 195
field mean 39.899575128533
field stddev 0.52720975172532
field sum 7780.4171500639
field sqrsum 310489.26093403
field min 38.463289579069
field max 42.047208222692
attr interpolationmode  none
attr title  "Latency time of file print, stats"
attr unit  s
statistic UCACnet.owner[149] 	latency:stats
field count 191
field mean 39.748501560921
field stddev 1.7514923891973
field sum 7591.9637981359
field sqrsum 302352.05274265
field min 16.741759662754
field max 41.165329409828
attr interpolationmode  none
attr title  "Latency time of file print, stats"
attr unit  s
statistic UCACnet.owner[150] 	latency:stats
field count 195
field mean 39.733997220122
field stddev 1.4951893215087
field sum 7748.1294579237
field sqrsum 308297.85901707
field min 20.181897953633
field max 41.28374343813
attr interpolationmode  none
attr title  "Latency time of file print, stats"
attr unit  s
statistic UCACnet.owner[151] 	latency:stats
field count 194
field mean 39.847899730925
field stddev 0.5170393164636
field sum 7730.4925477995
field sqrsum 308095.48653875
field min 38.636033216292
field max 41.573945872968
attr interpolationmode  none
attr title  "Latency time of file print, stats"
attr unit  s
statistic UCACnet.owner[152] 	latency:stats
field count 188
field mean 39.851197749163
field stddev 0.58247398797667
field sum 7492.0251768427
field sqrsum 298629.6214661
field min 36.701558534578
field max 41.403460601875
attr interpolationmode  none
attr title  "Latency time of file print, stats"
attr unit  s
statistic UCACnet.owner[153] 	latency:stats
field count 193
field mean 39.87531968959
field stddev 0.53533684771263
field sum 7695.9367000908
field sqrsum 306932.96065075
field min 38.321959715762
field max 41.366561429686
attr interpolationmode  none
attr title  "Latency time of file print, stats"
attr unit  s
statistic UCACnet.owner[154] 	latency:stats
field count 191
field mean 39.813606086884
field stddev 0.94336315759657
field sum 7604.3987625948
field sqrsum 302927.62433049
field min 29.033093291103
field max 41.408995483736
attr interpolationmode  none
attr title  "Latency time of file print, stats"
attr unit  s
statistic UCACnet.owner[155] 	latency:stats
field count 199
field mean 39.872315452545
field stddev 0.52605061443469
field sum 7934.5907750565
field sqrsum 316425.2987612
field min 38.209007964993
field max 41.415831884097
attr interpolationmode  none
attr title  "Latency time of file print, stats"
attr unit  s
statistic UCACnet.owner[156] 	latency:stats
field count 193
field mean 39.829008720382
field stddev 0.5719965935313
field sum 7686.9986830337
field sqrsum 306228.35615989
field min 37.029900050402
field max 41.509547744505
attr interpolationmode  none
attr title  "Latency time of file print, stats"
attr unit  s
statistic UCACnet.owner[157] 	latency:stats
field count 195
field mean 39.923602121464
field stddev 0.49575310760807
field sum 7785.1024136854
field sqrsum 310857.0108407
field min 38.482827785066
field max 41.538217006657
attr interpolationmode  none
attr title  "Latency time of file print, stats"
attr unit  s
statistic UCACnet.owner[158] 	latency:stats
field count 194
field mean 39.803616634345
field stddev 0.93336623954824
field sum 7721.901627063
field sqrsum 307527.74835141
field min 29.019774579962
field max 41.202567278339
attr interpolationmode  none
attr title  "Latency time of file print, stats"
attr unit  s
statistic UCACnet.owner[159] 	latency:stats
field count 194
field mean 39.880597466893
field stddev 0.53494538898247
field sum 7736.8359085773
field sqrsum 308604.86868523
field min 38.246344780271
field max 42.070925678729
attr interpolationmode  none
attr title  "Latency time of file print, stats"
attr unit  s
statistic UCACnet.owner[160] 	latency:stats
field count 188
field mean 39.909226698274
field stddev 0.57977853557355
field sum 7502.9346192755
field sqrsum 299499.1773921
field min 37.482651455598
field max 41.397199990798
attr interpolationmode  none
attr title  "Latency time of file print, stats"
attr unit  s
statistic UCACnet.owner[161] 	latency:stats
field count 194
field mean 39.883318317204
field stddev 0.50786846209541
field sum 7737.3637535376
field sqrsum 308641.52208067
field min 38.664267072642
field max 41.31604732097
attr interpolationmode  none
attr title  "Latency time of file print, stats"
attr unit  s
statistic UCACnet.owner[162] 	latency:stats
field count 196
field mean 39.864679230354
field stddev 0.49363161996564
field sum 7813.4771291493
field sqrsum 311529.27550161
field min 38.435710730375
field max 41.031245015334
attr interpolationmode  none
attr title  "Latency time of file print, stats"
attr unit  s
statistic UCACnet.owner[163] 	latency:stats
field count 195
field mean 39.884316050986
field stddev 0.52777237888439
field sum 7777.4416299424
field sqrsum 310251.9775114
field min 38.094290164865
field max 41.249113675695
attr interpolationmode  none
attr title  "Latency time of file print, stats"
attr unit  s
statistic UCACnet.owner[164] 	latency:stats
field count 192
field mean 39.764313496685
field stddev 1.2789820123243
field sum 7634.7481913636
field sqrsum 303902.95739231
field min 23.784686929394
field max 40.952794549894
attr interpolationmode  none
attr title  "Latency time of file print, stats"
attr unit  s
statistic UCACnet.owner[165] 	latency:stats
field count 199
field mean 39.841848172784
field stddev 0.63933893069727
field sum 7928.5277863841
field sqrsum 315968.13364394
field min 34.483706463398
field max 41.151851974996
attr interpolationmode  none
attr title  "Latency time of file print, stats"
attr unit  s
statistic UCACnet.owner[166] 	latency:stats
field count 193
field mean 39.833211113312
field stddev 0.52774210494676
field sum 7687.8097448692
field sqrsum 306283.62281839
field min 38.236712828349
field max 42.083765673564
attr interpolationmode  none
attr title  "Latency time of file print, stats"
attr unit  s
statistic UCACnet.owner[167] 	latency:stats
field count 194
field mean 39.847150879384
field stddev 0.54893134151191
field sum 7730.3472706004
field sqrsum 308090.46988586
field min 38.196371505722
field max 41.508340169663
attr interpolationmode  none
attr title  "Latency time of file print, stats"
attr unit  s
statistic UCACnet.owner[168] 	latency:stats
field count 190
field mean 39.88170116688
field stddev 0.55085433619257
field sum 7577.5232217072
field sqrsum 302261.86696766
field min 38.366751705276
field max 41.513271754603
attr interpolationmode  none
attr title  "Latency time of file print, stats"
attr unit  s
statistic UCACnet.owner[169] 	latency:stats
field count 197
field mean 39.839294946591
field stddev 0.56446296652743
field sum 7848.3411044784
field sqrsum 312734.82531712
field min 38.022866927088
field max 41.175255719144
attr interpolationmode  none
attr title  "Latency time of file print, stats"
attr unit  s
statistic UCACnet.owner[170] 	latency:stats
field count 191
field mean 39.800904016212
field stddev 0.59649970871477
field sum 7601.9726670966
field sqrsum 302632.98871846
field min 36.107512543237
field max 41.38597181451
attr interpolationmode  none
attr title  "Latency time of file print, stats"
attr unit  s
statistic UCACnet.owner[171] 	latency:stats
field count 194
field mean 39.840397908727
field stddev 0.52561351267254
field sum 7729.0371942931
field sqrsum 307981.23729798
field min 38.205421716201
field max 41.461046732676
attr interpolationmode  none
attr title  "Latency time of file print, stats"
attr unit  s
statistic UCACnet.owner[172] 	latency:stats
field count 198
field mean 39.828042178418
field stddev 0.51937410703439
field sum 7885.9523513268
field sqrsum 314135.18350986
field min 38.334681805364
field max 41.508661565161
attr interpolationmode  none
attr title  "Latency time of file print, stats"
attr unit  s
statistic UCACnet.owner[173] 	latency:stats
field count 189
field mean 39.858540641419
field stddev 0.49419058644086
field sum 7533.2641812282
field sqrsum 300310.83070514
field min 38.656132813432
field max 41.511915378985
attr interpolationmode  none
attr title  "Latency time of file print, stats"
attr unit  s
statistic UCACnet.owner[174] 	latency:stats
field count 196
field mean 39.809016499561
field stddev 1.0663211764104
field sum 7802.567233914
field sqrsum 310834.25071981
field min 27.005157860033
field max 41.31867481987
attr interpolationmode  none
attr title  "Latency time of file print, stats"
attr unit  s
statistic UCACnet.owner[175] 	latency:stats
field count 194
field mean 39.864025411084
field stddev 0.52931454114246
field sum 7733.6209297502
field sqrsum 308347.33482276
field min 38.18238871724
field max 41.495800377341
attr interpolationmode  none
attr title  "Latency time of file print, stats"
attr unit  s
statistic UCACnet.owner[176] 	latency:stats
field count 188
field mean 39.865564258443
field stddev 0.54287475379836
field sum 7494.7260805872
field sqrsum 298836.59549576
field min 38.472655590232
field max 41.574704533473
attr interpolationmode  none
attr title  "Latency time of file print, stats"
attr unit  s
statistic UCACnet.owner[177] 	latency:stats
field count 192
field mean 39.798751871864
field stddev 1.1642880804186
field sum 7641.360359398
field sqrsum 304375.51815341
field min 25.63995612082
field max 41.416673734325
attr interpolationmode  none
attr title  "Latency time of file print, stats"
attr unit  s
statistic UCACnet.owner[178] 	latency:stats
field count 197
field mean 39.869615385514
field stddev 0.53130545087799
field sum 7854.3142309462
field sqrsum 313203.81545929
field min 38.445833129449
field max 41.115564357331
attr interpolationmode  none
attr title  "Latency time of file print, stats"
attr unit  s
statistic UCACnet.owner[179] 	latency:stats
field count 194
field mean 39.889132801934
field stddev 0.55602677837447
field sum 7738.4917635753
field sqrsum 308741.39463913
field min 36.600256788925
field max 41.031786475053
attr interpolationmode  none
attr title  "Latency time of file print, stats"
attr unit  s
statistic UCACnet.owner[180] 	latency:stats
field count 194
field mean 39.844386448424
field stddev 0.51783069838094
field sum 7729.8109709942
field sqrsum 308041.32818757
field min 37.51405880323
field max 41.358553539323
attr interpolationmode  none
attr title  "Latency time of file print, stats"
attr unit  s
statistic UCACnet.owner[181] 	latency:stats
field count 193
field mean 39.721404303383
field stddev 1.934748460785
field sum 7666.2310305529
field sqrsum 305232.16655618
field min 13.941653437575
field max 41.272852628293
attr interpolationmode  none
attr title  "Latency time of file print, stats"
attr unit  s
statistic UCACnet.owner[182] 	latency:stats
field count 192
field mean 39.885498525464
field stddev 0.53800953246856
field sum 7658.015716889
field sqrsum 305499.06034705
field min 38.426662390907
field max 41.989201843307
attr interpolationmode  none
attr title  "Latency time of file print, stats"
attr unit  s
statistic UCACnet.owner[183] 	latency:stats
field count 196
field mean 39.854118860058
field stddev 0.48232940344593
field sum 7811.4072965713
field sqrsum 311362.11998429
field min 38.30575759527
field max 41.487808714846
attr interpolationmode  none
attr title  "Latency time of file print, stats"
attr unit  s
statistic UCACnet.owner[184] 	latency:stats
field count 194
field mean 39.799069648099
field stddev 0.89587705568622
field sum 7721.0195117312
field sqrsum 307444.29427161
field min 29.922353808608
field max 41.466713243617
attr interpolationmode  none
attr title  "Latency time of file print, stats"
attr unit  s
statistic UCACnet.owner[185] 	latency:stats
field count 190
field mean 39.875141414786
field stddev 0.5411632281995
field sum 7576.2768688092
field sqrsum 302160.46163521
field min 38.464325357783
field max 41.897854402421
attr interpolationmode  none
attr title  "Latency time of file print, stats"
attr unit  s
statistic UCACnet.owner[186] 	latency:stats
field count 197
field mean 39.864272346673
field stddev 0.54209538393171
field sum 7853.2616522945
field sqrsum 313122.15932819
field min 38.427571717784
field max 42.144322843126
attr interpolationmode  none
attr title  "Latency time of file print, stats"
attr unit  s
statistic UCACnet.owner[187] 	latency:stats
field count 191
field mean 39.855323897085
field stddev 0.54152793494711
field sum 7612.3668643433
field sqrsum 303449.06497766
field min 38.086359195835
field max 41.400836229345
attr interpolationmode  none
attr title  "Latency time of file print, stats"
attr unit  s
statistic UCACnet.owner[188] 	latency:stats
field count 189
field mean 39.88251982745
field stddev 0.56586250604201
field sum 7537.7962473881
field sqrsum 300686.50596238
field min 36.845119273954
field max 41.332051106603
attr interpolationmode  none
attr title  "Latency time of file print, stats"
attr unit  s
statistic UCACnet.owner[189] 	latency:stats
field count 193
field mean 39.844196256407
field stddev 0.56612368376076
field sum 7689.9298774866
field sqrsum 306460.61047345
field min 36.092483706592
field max 41.267721375707
attr interpolationmode  none
attr title  "Latency time of file print, stats"
attr unit  s
statistic UCACnet.owner[190] 	latency:stats
field count 195
field mean 39.834028399348
field stddev 0.74394684508796
field sum 7767.6355378729
field sqrsum 309523.58525163
field min 32.878156558543
field max 41.355386061491
attr interpolationmode  none
attr title  "Latency time of file print, stats"
attr unit  s
statistic UCACnet.owner[191] 	latency:stats
field count 196
field mean 39.863074149315
field stddev 0.55177082132099
field sum 7813.1625332658
field sqrsum 311516.04535689
field min 38.34472308532
field max 41.431873926712
attr interpolationmode  none
attr title  "Latency time of file print, stats"
attr unit  s
statistic UCACnet.owner[192] 	latency:stats
field count 195
field mean 39.876179401969
field stddev 0.53310439740176
field sum 7775.854983384
field sqrsum 310126.52317903
field min 38.38403483238
field max 41.710370524623
attr interpolationmode  none
attr title  "Latency time of file print, stats"
attr unit  s
statistic UCACnet.owner[193] 	latency:stats
field count 192
field mean 39.855373356423
field stddev 0.51223200300824
field sum 7652.2316844332
field sqrsum 305032.66568329
field min 38.244240160745
field max 41.307686946201
attr interpolationmode  none
attr title  "Latency time of file print, stats"
attr unit  s
statistic UCACnet.owner[194] 	latency:stats
field count 194
field mean 39.761184906567
field stddev 1.7318186778203
field sum 7713.6698718739
field sqrsum 307283.49889883
field min 16.882536356259
field max 41.30692627449
attr interpolationmode  none
attr title  "Latency time of file print, stats"
attr unit  s
statistic UCACnet.owner[195] 	latency:stats
field count 196
field mean 39.792216668073
field stddev 0.77300404675814
field sum 7799.2744669423
field sqrsum 310466.93881732
field min 32.049138424368
field max 41.325650186208
attr interpolationmode  none
attr title  "Latency time of file print, stats"
attr unit  s
statistic UCACnet.owner[196] 	latency:stats
field count 193
field mean 39.886450503516
field stddev 0.51881631154925
field sum 7698.0849471787
field sqrsum 307100.96492761
field min 38.312987814249
field max 41.492250220085
attr interpolationmode  none
attr title  "Latency time of file print, stats"
attr unit  s
statistic UCACnet.owner[197] 	latency:stats
field count 197
field mean 39.844366192724
field stddev 0.51330368479887
field sum 7849.3401399667
field sqrsum 312803.62511995
field min 38.199621175873
field max 41.477539353212
attr interpolationmode  none
attr title  "Latency time of file print, stats"
attr unit  s
statistic UCACnet.owner[198] 	latency:stats
field count 193
field mean 39.73056201967
field stddev 1.9853185012077
field sum 7667.9984697963
field sqrsum 305410.65476481
field min 13.286595539292
field max 41.369275746974
attr interpolationmode  none
attr title  "Latency time of file print, stats"
attr unit  s
statistic UCACnet.owner[199] 	latency:stats
field count 197
field mean 39.784454622417
field stddev 0.81336552276529
field sum 7837.5375606162
field sqrsum 311941.82387266
field min 31.06624588191
field max 41.314274953249
attr interpolationmode  none
attr title  "Latency time of file print, stats"
attr unit  s
statistic UCACnet.owner[200] 	latency:stats
field count 193
field mean 39.851565134239
field stddev 0.52940115366299
field sum 7691.3520709081
field sqrsum 306566.22901581
field min 38.030921686961
field max 42.041319524491
attr interpolationmode  none
attr title  "Latency time of file print, stats"
attr unit  s
statistic UCACnet.owner[201] 	latency:stats
field count 191
field mean 39.892745159424
field stddev 0.53909516819288
field sum 7619.5143254501
field sqrsum 304018.56170783
field min 38.034620873944
field max 41.570830622731
attr interpolationmode  none
attr title  "Latency time of file print, stats"
attr unit  s
statistic UCACnet.owner[202] 	latency:stats
field count 199
field mean 39.852491256737
field stddev 0.58451055669171
field sum 7930.6457600907
field sqrsum 316123.63802729
field min 36.246444335669
field max 41.323288538517
attr interpolationmode  none
attr title  "Latency time of file print, stats"
attr unit  s
statistic UCACnet.owner[203] 	latency:stats
field count 196
field mean 39.886403146983
field stddev 0.54236409811453
field sum 7817.7350168086
field sqrsum 311878.69154562
field min 38.253149574671
field max 42.14457440985
attr interpolationmode  none
attr title  "Latency time of file print, stats"
attr unit  s
statistic UCACnet.owner[204] 	latency:stats
field count 186
field mean 39.908031688684
field stddev 0.52225791851236
field sum 7422.8938940953
field sqrsum 296283.54411398
field min 38.669122507355
field max 42.104082206713
attr interpolationmode  none
attr title  "Latency time of file print, stats"
attr unit  s
statistic UCACnet.owner[205] 	latency:stats
field count 194
field mean 39.843936164272
field stddev 0.57631104050131
field sum 7729.7236158688
field sqrsum 308046.71626032
field min 36.818193561863
field max 41.345908181716
attr interpolationmode  none
attr title  "Latency time of file print, stats"
attr unit  s
statistic UCACnet.owner[206] 	latency:stats
field count 190
field mean 39.911598699735
field stddev 0.46889253518265
field sum 7583.2037529496
field sqrsum 302699.33862565
field min 38.669755986572
field max 40.826308481115
attr interpolationmode  none
attr title  "Latency time of file print, stats"
attr unit  s
statistic UCACnet.owner[207] 	latency:stats
field count 191
field mean 39.873876511505
field stddev 0.53848989656443
field sum 7615.9104136975
field sqrsum 303730.96591851
field min 38.416228115588
field max 41.403388052346
attr interpolationmode  none
attr title  "Latency time of file print, stats"
attr unit  s
statistic UCACnet.owner[208] 	latency:stats
field count 193
field mean 39.812033727411
field stddev 0.60821729909425
field sum 7683.7225093903
field sqrsum 305975.64592623
field min 35.449451219135
field max 41.161117780813
attr interpolationmode  none
attr title  "Latency time of file print, stats"
attr unit  s
statistic UCACnet.owner[209] 	latency:stats
field count 195
field mean 39.894797443533
field stddev 0.54902932419531
field sum 7779.485501489
field sqrsum 310419.47633738
field min 38.107724107044
field max 41.961416851272
attr interpolationmode  none
attr title  "Latency time of file print, stats"
attr unit  s
statistic UCACnet.owner[210] 	latency:stats
field count 187
field mean 39.851216739689
field stddev 0.54443925457306
field sum 7452.1775303218
field sqrsum 297033.47496645
field min 38.423018583574
field max 41.575731265926
attr interpolationmode  none
attr title  "Latency time of file print, stats"
attr unit  s
statistic UCACnet.owner[211] 	latency:stats
field count 191
field mean 39.879580251728
field stddev 0.52011213503686
field sum 7616.9998280801
field sqrsum 303814.1540816
field min 38.052109908523
field max 41.187936679552
attr interpolationmode  none
attr title  "Latency time of file print, stats"
attr unit  s
statistic UCACnet.owner[212] 	latency:stats
field count 188
field mean 39.83330070922
field stddev 0.5441084529273
field sum 7488.6605333334
field sqrsum 298353.42903314
field min 38.02701097154
field max 41.775752236357
attr interpolationmode  none
attr title  "Latency time of file print, stats"
attr unit  s
statistic UCACnet.owner[213] 	latency:stats
field count 196
field mean 39.869272425876
field stddev 0.56410618071457
field sum 7814.3773954716
field sqrsum 311615.59329637
field min 38.116167588554
field max 41.57504130059
attr interpolationmode  none
attr title  "Latency time of file print, stats"
attr unit  s
statistic UCACnet.owner[214] 	latency:stats
field count 195
field mean 39.853665542034
field stddev 0.54294183101083
field sum 7771.4647806967
field sqrsum 309778.54659297
field min 38.064205999507
field max 41.587452828571
attr interpolationmode  none
attr title  "Latency time of file print, stats"
attr unit  s
statistic UCACnet.owner[215] 	latency:stats
field count 190
field mean 39.826423612174
field stddev 0.54933342739592
field sum 7567.0204863131
field sqrsum 301424.39737344
field min 38.006177453486
field max 41.893073644027
attr interpolationmode  none
attr title  "Latency time of file print, stats"
attr unit  s
statistic UCACnet.owner[216] 	latency:stats
field count 199
field mean 39.806191402373
field stddev 0.64846985462071
field sum 7921.4320890722
field sqrsum 315405.30352267
field min 34.699461015304
field max 41.309033275943
attr interpolationmode  none
attr title  "Latency time of file print, stats"
attr unit  s
statistic UCACnet.owner[217] 	latency:stats
field count 193
field mean 39.822663823927
field stddev 0.50612696386499
field sum 7685.7741180179
field sqrsum 306117.18251315
field min 38.195431481742
field max 41.024573102935
attr interpolationmode  none
attr title  "Latency time of file print, stats"
attr unit  s
statistic UCACnet.owner[218] 	latency:stats
field count 190
field mean 39.895614903003
field stddev 0.52216714797651
field sum 7580.1668315705
field sqrsum 302466.9492751
field min 38.3788694692
field max 41.567063160537
attr interpolationmode  none
attr title  "Latency time of file print, stats"
attr unit  s
statistic UCACnet.owner[219] 	latency:stats
field count 194
field mean 39.870768814308
field stddev 0.57306274470906
field sum 7734.9291499758
field sqrsum 308460.95330925
field min 38.222924424341
field max 42.139581308886
attr interpolationmode  none
attr title  "Latency time of file print, stats"
attr unit  s
statistic UCACnet.owner[220] 	latency:stats
field count 194
field mean 39.861354793725
field stddev 0.56893876766699
field sum 7733.1028299827
field sqrsum 308314.42798732
field min 38.16293583671
field max 41.37463164963
attr interpolationmode  none
attr title  "Latency time of file print, stats"
attr unit  s
statistic UCACnet.owner[221] 	latency:stats
field count 194
field mean 39.825704661182
field stddev 0.49599605989339
field sum 7726.1867042694
field sqrsum 307748.31017503
field min 38.108507084712
field max 41.409451367655
attr interpolationmode  none
attr title  "Latency time of file print, stats"
attr unit  s
statistic UCACnet.owner[222] 	latency:stats
field count 195
field mean 39.843890313004
field stddev 0.53705580602652
field sum 7769.5586110358
field sqrsum 309625.39629269
field min 38.508462917212
field max 41.421043688789
attr interpolationmode  none
attr title  "Latency time of file print, stats"
attr unit  s
statistic UCACnet.owner[223] 	latency:stats
field count 192
field mean 39.879171306121
field stddev 0.52269278460914
field sum 7656.8008907751
field sqrsum 305399.05705977
field min 38.347595111779
field max 41.390323842556
attr interpolationmode  none
attr title  "Latency time of file print, stats"
attr unit  s
statistic UCACnet.owner[224] 	latency:stats
field count 193
field mean 39.858559938555
field stddev 0.57679477908683
field sum 7692.702068141
field sqrsum 306683.90337814
field min 38.108693054537
field max 42.15327527175
attr interpolationmode  none
attr title  "Latency time of file print, stats"
attr unit  s
statistic UCACnet.owner[225] 	latency:stats
field count 196
field mean 39.795762568298
field stddev 0.94255692079829
field sum 7799.9694633865
field sqrsum 310578.97344695
field min 28.734394470594
field max 41.089684138897
attr interpolationmode  none
attr title  "Latency time of file print, stats"
attr unit  s
statistic UCACnet.owner[226] 	latency:stats
field count 188
field mean 39.839627753548
field stddev 0.57122862382057
field sum 7489.8500176671
field sqrsum 298453.85513407
field min 37.035459611474
field max 41.382755394961
attr interpolationmode  none
attr title  "Latency time of file print, stats"
attr unit  s
statistic UCACnet.owner[227] 	latency:stats
field count 195
field mean 39.862708141826
field stddev 0.56086896243299
field sum 7773.228087656
field sqrsum 309922.94993272
field min 38.448340287868
field max 42.003475358574
attr interpolationmode  none
attr title  "Latency time of file print, stats"
attr unit  s
statistic UCACnet.owner[228] 	latency:stats
field count 191
field mean 39.845731853735
field stddev 0.56112023133982
field sum 7610.5347840634
field sqrsum 303307.15089298
field min 38.32207752243
field max 41.624438898756
attr interpolationmode  none
attr title  "Latency time of file print, stats"
attr unit  s
statistic UCACnet.owner[229] 	latency:stats
field count 197
field mean 39.877390630709
field stddev 0.51232095442477
field sum 7855.8459542496
field sqrsum 313322.08251331
field min 38.35720473015
field max 41.211566071084
attr interpolationmode  none
attr title  "Latency time of file print, stats"
attr unit  s
statistic UCACnet.owner[230] 	latency:stats
field count 196
field mean 39.876986864787
field stddev 0.49837916450656
field sum 7815.8894254982
field sqrsum 311722.55440658
field min 38.342393244368
field max 41.376249956411
attr interpolationmode  none
attr title  "Latency time of file print, stats"
attr unit  s
statistic UCACnet.owner[231] 	latency:stats
field count 196
field mean 39.860879447269
field stddev 0.56054055460776
field sum 7812.7323716647
field sqrsum 311483.65333481
field min 38.407266502214
field max 42.008840775778
attr interpolationmode  none
attr title  "Latency time of file print, stats"
attr unit  s
statistic UCACnet.owner[232] 	latency:stats
field count 199
field mean 39.87902778366
field stddev 0.5005304236378
field sum 7935.9265289484
field sqrsum 316526.63961661
field min 38.507580944303
field max 41.433294161598
attr interpolationmode  none
attr title  "Latency time of file print, stats"
attr unit  s
statistic UCACnet.owner[233] 	latency:stats
field count 194
field mean 39.829869453855
field stddev 0.61361408916855
field sum 7726.9946740479
field sqrsum 307837.8579323
field min 35.503556183515
field max 41.150293766433
attr interpolationmode  none
attr title  "Latency time of file print, stats"
attr unit  s
statistic UCACnet.owner[234] 	latency:stats
field count 194
field mean 39.869794591461
field stddev 0.52200604920374
field sum 7734.7401507435
field sqrsum 308435.09165935
field min 38.503474611246
field max 41.608302680951
attr interpolationmode  none
attr title  "Latency time of file print, stats"
attr unit  s
statistic UCACnet.owner[235] 	latency:stats
field count 195
field mean 39.811610595061
field stddev 0.59446496735918
field sum 7763.2640660368
field sqrsum 309136.60333158
field min 37.366272520148
field max 41.390366150533
attr interpolationmode  none
attr title  "Latency time of file print, stats"
attr unit  s
statistic UCACnet.owner[236] 	latency:stats
field count 197
field mean 39.845176735753
field stddev 0.53554150451817
field sum 7849.4998169433
field sqrsum 312820.92121516
field min 38.322517645924
field max 41.420473567309
attr interpolationmode  none
attr title  "Latency time of file print, stats"
attr unit  s
statistic UCACnet.owner[237] 	latency:stats
field count 198
field mean 39.817738931677
field stddev 0.54591669336382
field sum 7883.912308472
field sqrsum 313978.27299108
field min 38.547719098467
field max 41.534163573615
attr interpolationmode  none
attr title  "Latency time of file print, stats"
attr unit  s
statistic UCACnet.owner[238] 	latency:stats
field count 198
field mean 39.868190463778
field stddev 0.56221360930971
field sum 7893.901711828
field sqrsum 314777.84552557
field min 38.224914826468
field max 42.119831607769
attr interpolationmode  none
attr title  "Latency time of file print, stats"
attr unit  s
statistic UCACnet.owner[239] 	latency:stats
field count 191
field mean 39.857173278155
field stddev 0.52098320985371
field sum 7612.7200961276
field sqrsum 303473.07445539
field min 38.48318058241
field max 41.739046839848
attr interpolationmode  none
attr title  "Latency time of file print, stats"
attr unit  s
statistic UCACnet.owner[240] 	latency:stats
field count 192
field mean 39.898418578322
field stddev 0.51543470374293
field sum 7660.4963670378
field sqrsum 305692.43410015
field min 38.184293211364
field max 42.154568256209
attr interpolationmode  none
attr title  "Latency time of file print, stats"
attr unit  s
statistic UCACnet.owner[241] 	latency:stats
field count 189
field mean 39.850927754989
field stddev 0.53330242874857
field sum 7531.825345693
field sqrsum 300203.69707275
field min 38.41366856519
field max 41.989312102851
attr interpolationmode  none
attr title  "Latency time of file print, stats"
attr unit  s
statistic UCACnet.owner[242] 	latency:stats
field count 192
field mean 39.848257501108
field stddev 0.55548248019642
field sum 7650.8654402128
field sqrsum 304932.59127802
field min 38.394891215656
field max 41.462910830136
attr interpolationmode  none
attr title  "Latency time of file print, stats"
attr unit  s
statistic UCACnet.owner[243] 	latency:stats
field count 193
field mean 39.87524615126
field stddev 0.53495768158418
field sum 7695.9225071931
field sqrsum 306931.75084179
field min 38.392146887884
field max 41.298967775776
attr interpolationmode  none
attr title  "Latency time of file print, stats"
attr unit  s
statistic UCACnet.owner[244] 	latency:stats
field count 192
field mean 39.867621607612
field stddev 0.50716548867189
field sum 7654.5833486615
field sqrsum 305219.16092345
field min 38.37334140574
field max 41.532418078142
attr interpolationmode  none
attr title  "Latency time of file print, stats"
attr unit  s
statistic UCACnet.owner[245] 	latency:stats
field count 194
field mean 39.808005417328
field stddev 0.63755770347544
field sum 7722.7530509616
field sqrsum 307505.84589564
field min 34.877088527461
field max 41.296132013843
attr interpolationmode  none
attr title  "Latency time of file print, stats"
attr unit  s
statistic UCACnet.owner[246] 	latency:stats
field count 189
field mean 39.878056891628
field stddev 0.54367430613467
field sum 7536.9527525177
field sqrsum 300614.60002363
field min 38.240672945684
field max 41.857690837762
attr interpolationmode  none
attr title  "Latency time of file print, stats"
attr unit  s
statistic UCACnet.owner[247] 	latency:stats
field count 199
field mean 39.866140448265
field stddev 0.52096817157572
field sum 7933.3619492046
field sqrsum 316326.2604454
field min 38.418981388446
field max 41.529458860453
attr interpolationmode  none
attr title  "Latency time of file print, stats"
attr unit  s
statistic UCACnet.owner[248] 	latency:stats
field count 190
field mean 39.833958619313
field stddev 0.54067076685186
field sum 7568.4521376695
field sqrsum 301536.65866614
field min 38.310071549757
field max 41.181231139092
attr interpolationmode  none
attr title  "Latency time of file print, stats"
attr unit  s
statistic UCACnet.owner[249] 	latency:stats
field count 194
field mean 39.863168162769
field stddev 0.54377145744845
field sum 7733.4546235771
field sqrsum 308337.0698066
field min 38.315682581298
field max 41.917125289277
attr interpolationmode  none
attr title  "Latency time of file print, stats"
attr unit  s
statistic UCACnet.owner[250] 	latency:stats
field count 195
field mean 39.844495328783
field stddev 0.56550033903316
field sum 7769.6765891127
field sqrsum 309640.88194394
field min 38.190069588602
field max 41.79763214015
attr interpolationmode  none
attr title  "Latency time of file print, stats"
attr unit  s
statistic UCACnet.owner[251] 	latency:stats
field count 191
field mean 39.849486783271
field stddev 0.57287258743934
field sum 7611.2519756048
field sqrsum 303366.83977629
field min 38.265999435034
field max 41.5700668853
attr interpolationmode  none
attr title  "Latency time of file print, stats"
attr unit  s
statistic UCACnet.owner[252] 	latency:stats
field count 190
field mean 39.73251097702
field stddev 1.7682666999217
field sum 7549.1770856339
field sqrsum 300538.72040849
field min 16.565863130735
field max 41.535699208663
attr interpolationmode  none
attr title  "Latency time of file print, stats"
attr unit  s
statistic UCACnet.owner[253] 	latency:stats
field count 192
field mean 39.870919751574
field stddev 0.49549803544184
field sum 7655.2165923023
field sqrsum 305267.4204285
field min 38.37222043135
field max 41.442277684941
attr interpolationmode  none
attr title  "Latency time of file print, stats"
attr unit  s
statistic UCACnet.owner[254] 	latency:stats
field count 191
field mean 39.844303674262
field stddev 0.60272852534017
field sum 7610.262001784
[...]
field mean 39.757340627853
field stddev 1.2737963896115
field sum 7712.9240818035
field sqrsum 306958.50350477
field min 23.760740837282
field max 41.477605696162
attr interpolationmode  none
attr title  "Latency time of file print, stats"
attr unit  s
statistic UCACnet.owner[537] 	latency:stats
field count 198
field mean 39.838687452441
field stddev 0.54707686483916
field sum 7888.0601155834
field sqrsum 314308.92229072
field min 38.019755384015
field max 41.370301390049
attr interpolationmode  none
attr title  "Latency time of file print, stats"
attr unit  s
statistic UCACnet.owner[538] 	latency:stats
field count 189
field mean 39.88510984985
field stddev 0.50710168039933
field sum 7538.2857616217
field sqrsum 300713.70027932
field min 38.123267777583
field max 41.323673053395
attr interpolationmode  none
attr title  "Latency time of file print, stats"
attr unit  s
statistic UCACnet.owner[539] 	latency:stats
field count 193
field mean 39.877549349709
field stddev 0.54444605258247
field sum 7696.3670244938
field sqrsum 306969.16876152
field min 38.160384155975
field max 41.626003629558
attr interpolationmode  none
attr title  "Latency time of file print, stats"
attr unit  s
statistic UCACnet.owner[540] 	latency:stats
field count 195
field mean 39.839701259874
field stddev 0.51200922338607
field sum 7768.7417456754
field sqrsum 309555.20808111
field min 37.975168291211
field max 40.892400711418
attr interpolationmode  none
attr title  "Latency time of file print, stats"
attr unit  s
statistic UCACnet.owner[541] 	latency:stats
field count 194
field mean 39.852665674333
field stddev 0.53432332721276
field sum 7731.4171408205
field sqrsum 308172.6842756
field min 38.197725465347
field max 41.933544152665
attr interpolationmode  none
attr title  "Latency time of file print, stats"
attr unit  s
statistic UCACnet.owner[542] 	latency:stats
field count 192
field mean 39.871625414392
field stddev 0.51768017162361
field sum 7655.3520795633
field sqrsum 305282.51714881
field min 38.518041102459
field max 41.321819451452
attr interpolationmode  none
attr title  "Latency time of file print, stats"
attr unit  s
statistic UCACnet.owner[543] 	latency:stats
field count 195
field mean 39.875376524952
field stddev 0.57103116998001
field sum 7775.6984223656
field sqrsum 310122.16119613
field min 38.410665736567
field max 41.847542391527
attr interpolationmode  none
attr title  "Latency time of file print, stats"
attr unit  s
statistic UCACnet.owner[544] 	latency:stats
field count 193
field mean 39.844319067001
field stddev 0.50482980581603
field sum 7689.9535799312
field sqrsum 306449.89585071
field min 37.948362276947
field max 41.088276621951
attr interpolationmode  none
attr title  "Latency time of file print, stats"
attr unit  s
statistic UCACnet.owner[545] 	latency:stats
field count 194
field mean 39.808730112349
field stddev 0.63173730558741
field sum 7722.8936417958
field sqrsum 307515.61343312
field min 34.549502722088
field max 41.112869168736
attr interpolationmode  none
attr title  "Latency time of file print, stats"
attr unit  s
statistic UCACnet.owner[546] 	latency:stats
field count 196
field mean 39.875158663285
field stddev 0.50337267665636
field sum 7815.5310980038
field sqrsum 311694.9524608
field min 38.409566102447
field max 41.20638939192
attr interpolationmode  none
attr title  "Latency time of file print, stats"
attr unit  s
statistic UCACnet.owner[547] 	latency:stats
field count 189
field mean 39.83162036742
field stddev 0.52009097129129
field sum 7528.1762494423
field sqrsum 299910.31141508
field min 38.37526986978
field max 41.355209536264
attr interpolationmode  none
attr title  "Latency time of file print, stats"
attr unit  s
statistic UCACnet.owner[548] 	latency:stats
field count 193
field mean 39.853059170515
field stddev 0.62044851656747
field sum 7691.6404199093
field sqrsum 306609.31239442
field min 35.005889815864
field max 41.208447110635
attr interpolationmode  none
attr title  "Latency time of file print, stats"
attr unit  s
statistic UCACnet.owner[549] 	latency:stats
field count 190
field mean 39.848500995641
field stddev 0.52403295740573
field sum 7571.2151891717
field sqrsum 301753.47739606
field min 38.178918351342
field max 41.24480503955
attr interpolationmode  none
attr title  "Latency time of file print, stats"
attr unit  s
statistic UCACnet.owner[550] 	latency:stats
field count 193
field mean 39.828182321817
field stddev 0.52991490543119
field sum 7686.8391881107
field sqrsum 306206.74814551
field min 38.114136495488
field max 41.109687027376
attr interpolationmode  none
attr title  "Latency time of file print, stats"
attr unit  s
statistic UCACnet.owner[551] 	latency:stats
field count 195
field mean 39.833349815342
field stddev 0.52802910262128
field sum 7767.5032139916
field sqrsum 309459.76277296
field min 38.4693106417
field max 41.148859975778
attr interpolationmode  none
attr title  "Latency time of file print, stats"
attr unit  s
statistic UCACnet.owner[552] 	latency:stats
field count 194
field mean 39.856193251222
field stddev 0.47491964997687
field sum 7732.101490737
field sqrsum 308215.66214694
field min 38.25984460276
field max 41.234894255669
attr interpolationmode  none
attr title  "Latency time of file print, stats"
attr unit  s
statistic UCACnet.owner[553] 	latency:stats
field count 195
field mean 39.886237792227
field stddev 0.51420429961571
field sum 7777.8163694843
field sqrsum 310279.12799351
field min 38.590801564242
field max 42.09729098851
attr interpolationmode  none
attr title  "Latency time of file print, stats"
attr unit  s
statistic UCACnet.owner[554] 	latency:stats
field count 194
field mean 39.849607361397
field stddev 0.51724192412545
field sum 7730.8238281111
field sqrsum 308121.92919752
field min 38.584374121699
field max 41.851073313537
attr interpolationmode  none
attr title  "Latency time of file print, stats"
attr unit  s
statistic UCACnet.owner[555] 	latency:stats
field count 193
field mean 39.83319589023
field stddev 0.53324772099937
field sum 7687.8068068144
field sqrsum 306284.51030342
field min 38.399627977023
field max 41.256335210835
attr interpolationmode  none
attr title  "Latency time of file print, stats"
attr unit  s
statistic UCACnet.owner[556] 	latency:stats
field count 196
field mean 39.888592101757
field stddev 0.53908322846698
field sum 7818.1640519443
field sqrsum 311912.22594443
field min 38.413092139652
field max 41.905024510549
attr interpolationmode  none
attr title  "Latency time of file print, stats"
attr unit  s
statistic UCACnet.owner[557] 	latency:stats
field count 191
field mean 39.882341029115
field stddev 0.53859854316368
field sum 7617.527136561
field sqrsum 303859.93185309
field min 38.341666644779
field max 42.168856313908
attr interpolationmode  none
attr title  "Latency time of file print, stats"
attr unit  s
statistic UCACnet.owner[558] 	latency:stats
field count 194
field mean 39.873506890961
field stddev 0.54274104669171
field sum 7735.4603368464
field sqrsum 308496.78263985
field min 38.548546080058
field max 41.298129518249
attr interpolationmode  none
attr title  "Latency time of file print, stats"
attr unit  s
statistic UCACnet.owner[559] 	latency:stats
field count 196
field mean 39.870185057587
field stddev 0.50897327485887
field sum 7814.556271287
field sqrsum 311618.32016907
field min 38.661099912538
field max 41.313395490729
attr interpolationmode  none
attr title  "Latency time of file print, stats"
attr unit  s
statistic UCACnet.owner[560] 	latency:stats
field count 189
field mean 39.858506914033
field stddev 0.55717942205562
field sum 7533.2578067523
field sqrsum 300322.7727704
field min 36.912127906328
field max 41.404004235463
attr interpolationmode  none
attr title  "Latency time of file print, stats"
attr unit  s
statistic UCACnet.owner[561] 	latency:stats
field count 193
field mean 39.859558800923
field stddev 0.5338464848384
field sum 7692.8948485781
field sqrsum 306690.11304354
field min 38.083850518224
field max 41.369344514395
attr interpolationmode  none
attr title  "Latency time of file print, stats"
attr unit  s
statistic UCACnet.owner[562] 	latency:stats
field count 191
field mean 39.918981080155
field stddev 0.54245448300144
field sum 7624.5253863097
field sqrsum 304419.19344582
field min 38.419733737002
field max 41.264643963253
attr interpolationmode  none
attr title  "Latency time of file print, stats"
attr unit  s
statistic UCACnet.owner[563] 	latency:stats
field count 195
field mean 39.817396829669
field stddev 0.70032910953223
field sum 7764.3923817855
field sqrsum 309253.04201397
field min 33.376698778274
field max 41.483881308498
attr interpolationmode  none
attr title  "Latency time of file print, stats"
attr unit  s
statistic UCACnet.owner[564] 	latency:stats
field count 195
field mean 39.894768628723
field stddev 0.55390772001607
field sum 7779.479882601
field sqrsum 310420.07183806
field min 38.399727439877
field max 41.919541678315
attr interpolationmode  none
attr title  "Latency time of file print, stats"
attr unit  s
statistic UCACnet.owner[565] 	latency:stats
field count 196
field mean 39.885323269359
field stddev 0.55354601482469
field sum 7817.5233607944
field sqrsum 311864.1969832
field min 38.333654525742
field max 41.959236117715
attr interpolationmode  none
attr title  "Latency time of file print, stats"
attr unit  s
statistic UCACnet.owner[566] 	latency:stats
field count 192
field mean 39.751602257859
field stddev 1.8504824619494
field sum 7632.307633509
field sqrsum 304050.49585719
field min 15.076408495931
field max 41.334205082382
attr interpolationmode  none
attr title  "Latency time of file print, stats"
attr unit  s
statistic UCACnet.owner[567] 	latency:stats
field count 195
field mean 39.868948501653
field stddev 0.52475525089645
field sum 7774.4449578223
field sqrsum 310012.36705858
field min 38.422271008428
field max 41.285322347424
attr interpolationmode  none
attr title  "Latency time of file print, stats"
attr unit  s
statistic UCACnet.owner[568] 	latency:stats
field count 196
field mean 39.876197651256
field stddev 0.51571153356116
field sum 7815.7347396461
field sqrsum 311713.64515315
field min 38.198302823851
field max 41.248289081329
attr interpolationmode  none
attr title  "Latency time of file print, stats"
attr unit  s
statistic UCACnet.owner[569] 	latency:stats
field count 194
field mean 39.889101442789
field stddev 0.53149941347794
field sum 7738.485679901
field sqrsum 308735.76118306
field min 38.384818048036
field max 41.219680524294
attr interpolationmode  none
attr title  "Latency time of file print, stats"
attr unit  s
statistic UCACnet.owner[570] 	latency:stats
field count 193
field mean 39.799303554588
field stddev 0.82106018217535
field sum 7681.2655860355
field sqrsum 305838.455588
field min 31.10831999935
field max 41.287974664126
attr interpolationmode  none
attr title  "Latency time of file print, stats"
attr unit  s
statistic UCACnet.owner[571] 	latency:stats
field count 191
field mean 39.861283940154
field stddev 0.54953540271429
field sum 7613.5052325694
field sqrsum 303541.47179548
field min 38.165573613898
field max 41.912971645965
attr interpolationmode  none
attr title  "Latency time of file print, stats"
attr unit  s
statistic UCACnet.owner[572] 	latency:stats
field count 193
field mean 39.84561962388
field stddev 0.51956412097073
field sum 7690.2045874089
field sqrsum 306472.79661987
field min 38.354164395472
field max 41.445332633613
attr interpolationmode  none
attr title  "Latency time of file print, stats"
attr unit  s
statistic UCACnet.owner[573] 	latency:stats
field count 191
field mean 39.840654832818
field stddev 0.54031043429563
field sum 7609.5650730682
field sqrsum 303225.5232234
field min 38.339997211743
field max 41.521588931035
attr interpolationmode  none
attr title  "Latency time of file print, stats"
attr unit  s
statistic UCACnet.owner[574] 	latency:stats
field count 195
field mean 39.84475735448
field stddev 0.48015512923331
field sum 7769.7276841235
field sqrsum 309627.64078022
field min 38.164499732161
field max 40.965653271097
attr interpolationmode  none
attr title  "Latency time of file print, stats"
attr unit  s
statistic UCACnet.owner[575] 	latency:stats
field count 192
field mean 39.871319827444
field stddev 0.54537576783834
field sum 7655.2934068693
field sqrsum 305283.46183128
field min 38.6126232188
field max 42.026903974611
attr interpolationmode  none
attr title  "Latency time of file print, stats"
attr unit  s
statistic UCACnet.owner[576] 	latency:stats
field count 196
field mean 39.8838843665
field stddev 0.54822835996198
field sum 7817.241335834
field sqrsum 311840.55759868
field min 38.060992497492
field max 41.433967534883
attr interpolationmode  none
attr title  "Latency time of file print, stats"
attr unit  s
statistic UCACnet.owner[577] 	latency:stats
field count 193
field mean 39.70662485032
field stddev 2.0089069726006
field sum 7663.3785961117
field sqrsum 305061.75478889
field min 12.973097731005
field max 41.200384207281
attr interpolationmode  none
attr title  "Latency time of file print, stats"
attr unit  s
statistic UCACnet.owner[578] 	latency:stats
field count 194
field mean 39.85042428029
field stddev 0.53020456949018
field sum 7730.9823103763
field sqrsum 308137.18073081
field min 38.489219148228
field max 41.901790064668
attr interpolationmode  none
attr title  "Latency time of file print, stats"
attr unit  s
statistic UCACnet.owner[579] 	latency:stats
field count 196
field mean 39.881287079436
field stddev 0.55257631405158
field sum 7816.7322675694
field sqrsum 311800.88499968
field min 36.213681963582
field max 41.041493792741
attr interpolationmode  none
attr title  "Latency time of file print, stats"
attr unit  s
statistic UCACnet.owner[580] 	latency:stats
field count 192
field mean 39.866989386407
field stddev 0.51297116012902
field sum 7654.4619621901
field sqrsum 305210.61343281
field min 38.526181885307
field max 41.215965826577
attr interpolationmode  none
attr title  "Latency time of file print, stats"
attr unit  s
statistic UCACnet.owner[581] 	latency:stats
field count 196
field mean 39.85156526591
field stddev 0.53290822477902
field sum 7810.9067921183
field sqrsum 311332.24009137
field min 38.074891191499
field max 41.497454257188
attr interpolationmode  none
attr title  "Latency time of file print, stats"
attr unit  s
statistic UCACnet.owner[582] 	latency:stats
field count 194
field mean 39.785669966472
field stddev 0.87556175258171
field sum 7718.4199734956
field sqrsum 307230.46514596
field min 30.399410571085
field max 41.335453482421
attr interpolationmode  none
attr title  "Latency time of file print, stats"
attr unit  s
statistic UCACnet.owner[583] 	latency:stats
field count 192
field mean 39.815324106127
field stddev 0.52337507740059
field sum 7644.5422283764
field sqrsum 304422.24546687
field min 38.340330939918
field max 41.404195071333
attr interpolationmode  none
attr title  "Latency time of file print, stats"
attr unit  s
statistic UCACnet.owner[584] 	latency:stats
field count 192
field mean 39.822723426227
field stddev 0.54962512319477
field sum 7645.9628978356
field sqrsum 304540.76457293
field min 38.376145921197
field max 41.619327146793
attr interpolationmode  none
attr title  "Latency time of file print, stats"
attr unit  s
statistic UCACnet.owner[585] 	latency:stats
field count 195
field mean 39.815867133741
field stddev 0.5568813325852
field sum 7764.0940910795
field sqrsum 309194.30140709
field min 37.133695191586
field max 41.154114823033
attr interpolationmode  none
attr title  "Latency time of file print, stats"
attr unit  s
statistic UCACnet.owner[586] 	latency:stats
field count 192
field mean 39.7838335514
field stddev 0.71137867136129
field sum 7638.4960418687
field sqrsum 303985.31249902
field min 33.162328062174
field max 41.416028345381
attr interpolationmode  none
attr title  "Latency time of file print, stats"
attr unit  s
statistic UCACnet.owner[587] 	latency:stats
field count 190
field mean 39.849023664276
field stddev 0.51596715239304
field sum 7571.3144962124
field sqrsum 301759.80650659
field min 38.440657920217
field max 41.001772904436
attr interpolationmode  none
attr title  "Latency time of file print, stats"
attr unit  s
statistic UCACnet.owner[588] 	latency:stats
field count 193
field mean 39.854823719649
field stddev 0.51574458360219
field sum 7691.9809778923
field sqrsum 306613.6164841
field min 38.549556542544
field max 41.482542896676
attr interpolationmode  none
attr title  "Latency time of file print, stats"
attr unit  s
statistic UCACnet.owner[589] 	latency:stats
field count 201
field mean 39.752040080437
field stddev 0.92341441287102
field sum 7990.1600561678
field sqrsum 317795.70163747
field min 29.133858571453
field max 41.287698334814
attr interpolationmode  none
attr title  "Latency time of file print, stats"
attr unit  s
statistic UCACnet.owner[590] 	latency:stats
field count 196
field mean 39.832722069382
field stddev 0.60421719816167
field sum 7807.2135255988
field sqrsum 311053.75679389
field min 34.767547160714
field max 40.953436577748
attr interpolationmode  none
attr title  "Latency time of file print, stats"
attr unit  s
statistic UCACnet.owner[591] 	latency:stats
field count 195
field mean 39.823932632404
field stddev 0.53015153466443
field sum 7765.6668633188
field sqrsum 309313.91977655
field min 38.283328268625
field max 41.489805675657
attr interpolationmode  none
attr title  "Latency time of file print, stats"
attr unit  s
statistic UCACnet.owner[592] 	latency:stats
field count 196
field mean 39.752003262085
field stddev 1.0417217288197
field sum 7791.3926393687
field sqrsum 309935.07652763
field min 27.359977307023
field max 41.387523466784
attr interpolationmode  none
attr title  "Latency time of file print, stats"
attr unit  s
statistic UCACnet.owner[593] 	latency:stats
field count 188
field mean 39.839104228605
field stddev 0.55093562219219
field sum 7489.7515949778
field sqrsum 298441.75455986
field min 38.07690493964
field max 41.401355765889
attr interpolationmode  none
attr title  "Latency time of file print, stats"
attr unit  s
statistic UCACnet.owner[594] 	latency:stats
field count 194
field mean 39.908854134341
field stddev 0.52593381951724
field sum 7742.3177020622
field sqrsum 309040.41286515
field min 38.460299894782
field max 41.304096242144
attr interpolationmode  none
attr title  "Latency time of file print, stats"
attr unit  s
statistic UCACnet.owner[595] 	latency:stats
field count 188
field mean 39.865280732214
field stddev 0.50911704210384
field sum 7494.6727776562
field sqrsum 298825.70470774
field min 38.36679547671
field max 41.538297915842
attr interpolationmode  none
attr title  "Latency time of file print, stats"
attr unit  s
statistic UCACnet.owner[596] 	latency:stats
field count 187
field mean 39.848777519513
field stddev 0.51096517335319
field sum 7451.721396149
field sqrsum 296990.54993849
field min 38.584250894377
field max 41.361832911361
attr interpolationmode  none
attr title  "Latency time of file print, stats"
attr unit  s
statistic UCACnet.owner[597] 	latency:stats
field count 192
field mean 39.840662416941
field stddev 0.5763267333337
field sum 7649.4071840526
field sqrsum 304820.89043774
field min 38.109727963726
field max 41.501788904055
attr interpolationmode  none
attr title  "Latency time of file print, stats"
attr unit  s
statistic UCACnet.owner[598] 	latency:stats
field count 193
field mean 39.875902192207
field stddev 0.51915560173259
field sum 7696.0491230959
field sqrsum 306938.65042644
field min 38.389053697675
field max 41.328500555168
attr interpolationmode  none
attr title  "Latency time of file print, stats"
attr unit  s
statistic UCACnet.owner[599] 	latency:stats
field count 193
field mean 39.87528954825
field stddev 0.57256863296794
field sum 7695.9308828122
field sqrsum 306940.41658463
field min 38.38031341645
field max 41.92071734067
attr interpolationmode  none
attr title  "Latency time of file print, stats"
attr unit  s
