version 2
run Owner-500-0-20110905-21:51:23-5342
attr configname Owner-500
attr datetime 20110905-21:51:23
attr experiment Owner-500
attr inifile crypto.ini
attr iterationvars ""
attr iterationvars2 $repetition=0
attr measurement ""
attr network UCACnet
attr processid 5342
attr repetition 0
attr replication #0
attr resultdir results
attr runnumber 0
attr seedset 0

statistic UCACnet.owner[0] 	latency:stats
field count 170
field mean 31.760436895264
field stddev 0.57761647764219
field sum 5399.2742721949
field sqrsum 171539.69509666
field min 30.263817713894
field max 33.156276901213
attr interpolationmode  none
attr title  "Latency time of file print, stats"
attr unit  s
statistic UCACnet.owner[1] 	latency:stats
field count 176
field mean 31.677036565562
field stddev 0.57346015004564
field sum 5575.1584355388
field sqrsum 176662.04751651
field min 30.226947667465
field max 33.442403621801
attr interpolationmode  none
attr title  "Latency time of file print, stats"
attr unit  s
statistic UCACnet.owner[2] 	latency:stats
field count 169
field mean 31.707529671576
field stddev 0.5969726151656
field sum 5358.5725144963
field sqrsum 169966.96821963
field min 30.330321835281
field max 33.442699926167
attr interpolationmode  none
attr title  "Latency time of file print, stats"
attr unit  s
statistic UCACnet.owner[3] 	latency:stats
field count 172
field mean 31.689409793851
field stddev 0.64262097468897
field sum 5450.5784845424
field sqrsum 172796.23166384
field min 29.569431818767
field max 33.463781937233
attr interpolationmode  none
attr title  "Latency time of file print, stats"
attr unit  s
statistic UCACnet.owner[4] 	latency:stats
field count 169
field mean 31.633412496056
field stddev 0.60931080284685
field sum 5346.0467118335
field sqrsum 169176.07248056
field min 29.667999417317
field max 33.433776191933
attr interpolationmode  none
attr title  "Latency time of file print, stats"
attr unit  s
statistic UCACnet.owner[5] 	latency:stats
field count 179
field mean 31.728746604581
field stddev 0.61438548442665
field sum 5679.4456422199
field sqrsum 180268.88121166
field min 30.053342350777
field max 33.534093479469
attr interpolationmode  none
attr title  "Latency time of file print, stats"
attr unit  s
statistic UCACnet.owner[6] 	latency:stats
field count 176
field mean 31.699206587419
field stddev 0.59489855876145
field sum 5579.0603593858
field sqrsum 176913.72014751
field min 30.121209801982
field max 33.439688284046
attr interpolationmode  none
attr title  "Latency time of file print, stats"
attr unit  s
statistic UCACnet.owner[7] 	latency:stats
field count 176
field mean 31.710250546888
field stddev 0.59823788969347
field sum 5581.0040962523
field sqrsum 177037.66869558
field min 29.947788519403
field max 33.382051106603
attr interpolationmode  none
attr title  "Latency time of file print, stats"
attr unit  s
statistic UCACnet.owner[8] 	latency:stats
field count 171
field mean 31.664658628914
field stddev 0.60097632250696
field sum 5414.6566255443
field sqrsum 171514.65297249
field min 30.223087515885
field max 33.014644044786
attr interpolationmode  none
attr title  "Latency time of file print, stats"
attr unit  s
statistic UCACnet.owner[9] 	latency:stats
field count 172
field mean 31.726042924621
field stddev 0.62548221219449
field sum 5456.8793830348
field sqrsum 173192.08952826
field min 30.013037205654
field max 33.507943242707
attr interpolationmode  none
attr title  "Latency time of file print, stats"
attr unit  s
statistic UCACnet.owner[10] 	latency:stats
field count 173
field mean 31.734038084719
field stddev 0.60562090952912
field sum 5489.9885886564
field sqrsum 174282.5925471
field min 30.2334638263
field max 33.478414500002
attr interpolationmode  none
attr title  "Latency time of file print, stats"
attr unit  s
statistic UCACnet.owner[11] 	latency:stats
field count 175
field mean 31.726230784441
field stddev 0.58311454498149
field sum 5552.0903872772
field sqrsum 176206.06489046
field min 30.162142170864
field max 33.2440668853
attr interpolationmode  none
attr title  "Latency time of file print, stats"
attr unit  s
statistic UCACnet.owner[12] 	latency:stats
field count 172
field mean 31.765024039805
field stddev 0.58592129546563
field sum 5463.5841348465
field sqrsum 173609.58633062
field min 30.079764509004
field max 33.469121596607
attr interpolationmode  none
attr title  "Latency time of file print, stats"
attr unit  s
statistic UCACnet.owner[13] 	latency:stats
field count 171
field mean 31.664681593289
field stddev 0.64907961600873
field sum 5414.6605524524
field sqrsum 171525.12406829
field min 29.312416115265
field max 33.245053354022
attr interpolationmode  none
attr title  "Latency time of file print, stats"
attr unit  s
statistic UCACnet.owner[14] 	latency:stats
field count 173
field mean 31.760490844607
field stddev 0.60286236938616
field sum 5494.564916117
field sqrsum 174572.5909157
field min 29.618093677439
field max 33.198561429686
attr interpolationmode  none
attr title  "Latency time of file print, stats"
attr unit  s
statistic UCACnet.owner[15] 	latency:stats
field count 169
field mean 31.633169852877
field stddev 1.2783739667234
field sum 5346.0057051363
field sqrsum 169385.65882483
field min 17.16616081571
field max 33.283048217232
attr interpolationmode  none
attr title  "Latency time of file print, stats"
attr unit  s
statistic UCACnet.owner[16] 	latency:stats
field count 176
field mean 31.639547832662
field stddev 0.58588258683117
field sum 5568.5604185484
field sqrsum 176246.8039427
field min 29.811827335523
field max 32.867412000231
attr interpolationmode  none
attr title  "Latency time of file print, stats"
attr unit  s
statistic UCACnet.owner[17] 	latency:stats
field count 174
field mean 31.661974615398
field stddev 0.65551433190625
field sum 5509.1835830793
field sqrsum 174505.96869283
field min 28.700446098223
field max 33.19045787981
attr interpolationmode  none
attr title  "Latency time of file print, stats"
attr unit  s
statistic UCACnet.owner[18] 	latency:stats
field count 169
field mean 31.698482475812
field stddev 0.59892515457864
field sum 5357.0435384123
field sqrsum 169870.41422978
field min 30.097454193437
field max 32.94655898358
attr interpolationmode  none
attr title  "Latency time of file print, stats"
attr unit  s
statistic UCACnet.owner[19] 	latency:stats
field count 174
field mean 31.7505959429
field stddev 0.56948485568976
field sum 5524.6036940646
field sqrsum 175465.56578405
field min 30.259359143887
field max 33.197453482421
attr interpolationmode  none
attr title  "Latency time of file print, stats"
attr unit  s
statistic UCACnet.owner[20] 	latency:stats
field count 173
field mean 31.73689829394
field stddev 0.61791769086758
field sum 5490.4834048516
field sqrsum 174316.58683524
field min 29.988591863335
field max 33.378836501654
attr interpolationmode  none
attr title  "Latency time of file print, stats"
attr unit  s
statistic UCACnet.owner[21] 	latency:stats
field count 178
field mean 31.741725785197
field stddev 0.595438097269
field sum 5650.0271897652
field sqrsum 179404.36847183
field min 30.368674844843
field max 33.393033275943
attr interpolationmode  none
attr title  "Latency time of file print, stats"
attr unit  s
statistic UCACnet.owner[22] 	latency:stats
field count 172
field mean 31.650729285178
field stddev 0.61779232463397
field sum 5443.9254370505
field sqrsum 172369.47537472
field min 30.251655514458
field max 33.142189615849
attr interpolationmode  none
attr title  "Latency time of file print, stats"
attr unit  s
statistic UCACnet.owner[23] 	latency:stats
field count 173
field mean 31.698730477382
field stddev 0.58506935350008
field sum 5483.8803725871
field sqrsum 173890.92255837
field min 30.188273051925
field max 33.499588931035
attr interpolationmode  none
attr title  "Latency time of file print, stats"
attr unit  s
statistic UCACnet.owner[24] 	latency:stats
field count 178
field mean 31.671273862805
field stddev 0.62214160743211
field sum 5637.4867475793
field sqrsum 178614.89633232
field min 30.230323361325
field max 33.409172235047
attr interpolationmode  none
attr title  "Latency time of file print, stats"
attr unit  s
statistic UCACnet.owner[25] 	latency:stats
field count 175
field mean 31.723015925018
field stddev 0.58972829473029
field sum 5551.5277868782
field sqrsum 176171.71801764
field min 30.052465845621
field max 33.119773639296
attr interpolationmode  none
attr title  "Latency time of file print, stats"
attr unit  s
statistic UCACnet.owner[26] 	latency:stats
field count 172
field mean 31.696356889074
field stddev 0.58852425135268
field sum 5451.7733849208
field sqrsum 172860.58258265
field min 30.258858261562
field max 33.36771444802
attr interpolationmode  none
attr title  "Latency time of file print, stats"
attr unit  s
statistic UCACnet.owner[27] 	latency:stats
field count 173
field mean 31.761124948627
field stddev 0.58326767886123
field sum 5494.6746161125
field sqrsum 174575.56163825
field min 30.220568219398
field max 33.499949094453
attr interpolationmode  none
attr title  "Latency time of file print, stats"
attr unit  s
statistic UCACnet.owner[28] 	latency:stats
field count 173
field mean 31.579483394573
field stddev 1.1540093367884
field sum 5463.2506272612
field sqrsum 172755.69132248
field min 18.50115395199
field max 32.973715059466
attr interpolationmode  none
attr title  "Latency time of file print, stats"
attr unit  s
statistic UCACnet.owner[29] 	latency:stats
field count 177
field mean 31.649192223953
field stddev 0.61947565194986
field sum 5601.9070236397
field sqrsum 177363.37222656
field min 29.856269644491
field max 32.914417078949
attr interpolationmode  none
attr title  "Latency time of file print, stats"
attr unit  s
statistic UCACnet.owner[30] 	latency:stats
field count 172
field mean 31.624217173348
field stddev 1.1144653421222
field sum 5439.3653538159
field sqrsum 172228.05887706
field min 19.650397245398
field max 33.207288529699
attr interpolationmode  none
attr title  "Latency time of file print, stats"
attr unit  s
statistic UCACnet.owner[31] 	latency:stats
field count 171
field mean 31.69402873013
field stddev 0.63426821030444
field sum 5419.6789128522
field sqrsum 171839.84951966
field min 29.854999690483
field max 33.47188242356
attr interpolationmode  none
attr title  "Latency time of file print, stats"
attr unit  s
statistic UCACnet.owner[32] 	latency:stats
field count 177
field mean 31.568460202367
field stddev 1.520926689901
field sum 5587.6174558189
field sqrsum 176799.60564737
field min 12.97975162265
field max 33.069674970416
attr interpolationmode  none
attr title  "Latency time of file print, stats"
attr unit  s
statistic UCACnet.owner[33] 	latency:stats
field count 170
field mean 31.646667279933
field stddev 0.62195980146966
field sum 5379.9334375886
field sqrsum 170322.33843265
field min 29.885621175873
field max 33.11839595713
attr interpolationmode  none
attr title  "Latency time of file print, stats"
attr unit  s
statistic UCACnet.owner[34] 	latency:stats
field count 176
field mean 31.737980172853
field stddev 0.61900042659716
field sum 5585.8845104222
field sqrsum 177351.74510705
field min 29.746702902232
field max 33.259805632063
attr interpolationmode  none
attr title  "Latency time of file print, stats"
attr unit  s
statistic UCACnet.owner[35] 	latency:stats
field count 179
field mean 31.664287965703
field stddev 0.60320582301422
field sum 5667.9075458608
field sqrsum 179535.02328827
field min 30.111588531431
field max 33.057761616741
attr interpolationmode  none
attr title  "Latency time of file print, stats"
attr unit  s
statistic UCACnet.owner[36] 	latency:stats
field count 173
field mean 31.745833132604
field stddev 0.61116734752204
field sum 5492.0291319406
field sqrsum 174413.28677258
field min 29.495260602865
field max 33.200437121265
attr interpolationmode  none
attr title  "Latency time of file print, stats"
attr unit  s
statistic UCACnet.owner[37] 	latency:stats
field count 173
field mean 31.680587491261
field stddev 0.85508026294235
field sum 5480.7416359882
field sqrsum 173758.87482397
field min 23.493698969991
field max 33.511148051771
attr interpolationmode  none
attr title  "Latency time of file print, stats"
attr unit  s
statistic UCACnet.owner[38] 	latency:stats
field count 172
field mean 31.733780210417
field stddev 0.60364242323821
field sum 5458.2101961917
field sqrsum 173271.95240215
field min 30.193941677315
field max 33.064389488592
attr interpolationmode  none
attr title  "Latency time of file print, stats"
attr unit  s
statistic UCACnet.owner[39] 	latency:stats
field count 175
field mean 31.685483622089
field stddev 0.61565923966417
field sum 5544.9596338655
field sqrsum 175760.67998008
field min 30.238136978239
field max 33.184634844661
attr interpolationmode  none
attr title  "Latency time of file print, stats"
attr unit  s
statistic UCACnet.owner[40] 	latency:stats
field count 179
field mean 31.688543652393
field stddev 0.59847797883358
field sum 5672.2493137783
field sqrsum 179809.07529555
field min 29.999490723958
field max 33.437933648251
attr interpolationmode  none
attr title  "Latency time of file print, stats"
attr unit  s
statistic UCACnet.owner[41] 	latency:stats
field count 173
field mean 31.777319402372
field stddev 0.60383100266392
field sum 5497.4762566104
field sqrsum 174757.77215659
field min 30.063556298077
field max 33.394410275769
attr interpolationmode  none
attr title  "Latency time of file print, stats"
attr unit  s
statistic UCACnet.owner[42] 	latency:stats
field count 177
field mean 31.714377000842
field stddev 0.65298676076573
field sum 5613.444729149
field sqrsum 178101.94735453
field min 29.69046384981
field max 33.528803985626
attr interpolationmode  none
attr title  "Latency time of file print, stats"
attr unit  s
statistic UCACnet.owner[43] 	latency:stats
field count 176
field mean 31.712477083366
field stddev 0.62930638586309
field sum 5581.3959666725
field sqrsum 177069.19632857
field min 29.968667024006
field max 33.485294938504
attr interpolationmode  none
attr title  "Latency time of file print, stats"
attr unit  s
statistic UCACnet.owner[44] 	latency:stats
field count 176
field mean 31.683967782917
field stddev 0.60296253234827
field sum 5576.3783297934
field sqrsum 176745.41501423
field min 30.130980029325
field max 33.229892676255
attr interpolationmode  none
attr title  "Latency time of file print, stats"
attr unit  s
statistic UCACnet.owner[45] 	latency:stats
field count 178
field mean 31.72563668995
field stddev 0.60186579458829
field sum 5647.1633308112
field sqrsum 179223.96907307
field min 30.277313129391
field max 33.285924381283
attr interpolationmode  none
attr title  "Latency time of file print, stats"
attr unit  s
statistic UCACnet.owner[46] 	latency:stats
field count 175
field mean 31.705587734417
field stddev 0.62431624234156
field sum 5548.477853523
field sqrsum 175985.57149141
field min 29.624786148004
field max 33.198993329807
attr interpolationmode  none
attr title  "Latency time of file print, stats"
attr unit  s
statistic UCACnet.owner[47] 	latency:stats
field count 171
field mean 31.783067976743
field stddev 0.59528822545159
field sum 5434.9046240231
field sqrsum 172798.18568457
field min 30.018374876728
field max 33.498618089538
attr interpolationmode  none
attr title  "Latency time of file print, stats"
attr unit  s
statistic UCACnet.owner[48] 	latency:stats
field count 177
field mean 31.641401460831
field stddev 0.93003129197607
field sum 5600.528058567
field sqrsum 177360.78933768
field min 22.08326341226
field max 33.256530308048
attr interpolationmode  none
attr title  "Latency time of file print, stats"
attr unit  s
statistic UCACnet.owner[49] 	latency:stats
field count 167
field mean 31.690952059254
field stddev 0.64742308661841
field sum 5292.3889938955
field sqrsum 167790.42588888
field min 29.902391681729
field max 33.470772704618
attr interpolationmode  none
attr title  "Latency time of file print, stats"
attr unit  s
statistic UCACnet.owner[50] 	latency:stats
field count 175
field mean 31.719330628813
field stddev 0.56336213732096
field sum 5550.8828600422
field sqrsum 176125.5122997
field min 30.348446680499
field max 33.489688763148
attr interpolationmode  none
attr title  "Latency time of file print, stats"
attr unit  s
statistic UCACnet.owner[51] 	latency:stats
field count 175
field mean 31.691709311449
field stddev 0.61217109192173
field sum 5546.0491295035
field sqrsum 175828.98393881
field min 30.075228197633
field max 33.392626427184
attr interpolationmode  none
attr title  "Latency time of file print, stats"
attr unit  s
statistic UCACnet.owner[52] 	latency:stats
field count 174
field mean 31.702705400054
field stddev 0.8562292111367
field sum 5516.2707396094
field sqrsum 175007.5373887
field min 23.70271070164
field max 33.285805675657
attr interpolationmode  none
attr title  "Latency time of file print, stats"
attr unit  s
statistic UCACnet.owner[53] 	latency:stats
field count 178
field mean 31.717989426146
field stddev 0.62520935652981
field sum 5645.8021178541
field sqrsum 179142.6788291
field min 29.725138104929
field max 33.247032696096
attr interpolationmode  none
attr title  "Latency time of file print, stats"
attr unit  s
statistic UCACnet.owner[54] 	latency:stats
field count 179
field mean 31.729335310099
field stddev 0.57515858057369
field sum 5679.5510205077
field sqrsum 180267.26245642
field min 29.754868479647
field max 32.983412865481
attr interpolationmode  none
attr title  "Latency time of file print, stats"
attr unit  s
statistic UCACnet.owner[55] 	latency:stats
field count 180
field mean 31.703436994554
field stddev 0.59981690014898
field sum 5706.6186590197
field sqrsum 180983.82578433
field min 29.811649230515
field max 33.303146732659
attr interpolationmode  none
attr title  "Latency time of file print, stats"
attr unit  s
statistic UCACnet.owner[56] 	latency:stats
field count 172
field mean 31.717500162747
field stddev 0.59237187400298
field sum 5455.4100279924
field sqrsum 173091.97310944
field min 30.10607752243
field max 33.441051666061
attr interpolationmode  none
attr title  "Latency time of file print, stats"
attr unit  s
statistic UCACnet.owner[57] 	latency:stats
field count 170
field mean 31.661092256466
field stddev 0.98588434660016
field sum 5382.3856835992
field sqrsum 170576.472271
field min 21.302545900314
field max 33.141981701624
attr interpolationmode  none
attr title  "Latency time of file print, stats"
attr unit  s
statistic UCACnet.owner[58] 	latency:stats
field count 176
field mean 31.738709655579
field stddev 0.56317542722237
field sum 5586.0128993819
field sqrsum 177348.34569412
field min 30.281004162109
field max 33.105527757143
attr interpolationmode  none
attr title  "Latency time of file print, stats"
attr unit  s
statistic UCACnet.owner[59] 	latency:stats
field count 176
field mean 31.724096297825
field stddev 0.58722708927926
field sum 5583.4409484172
field sqrsum 177189.96456032
field min 30.00050930617
field max 33.214901214681
attr interpolationmode  none
attr title  "Latency time of file print, stats"
attr unit  s
statistic UCACnet.owner[60] 	latency:stats
field count 174
field mean 31.639887212797
field stddev 0.64548985214207
field sum 5505.3403750266
field sqrsum 174260.43022071
field min 28.471203985115
field max 33.176155668702
attr interpolationmode  none
attr title  "Latency time of file print, stats"
attr unit  s
statistic UCACnet.owner[61] 	latency:stats
field count 167
field mean 31.647321656274
field stddev 0.71992453675993
field sum 5285.1027165978
field sqrsum 167345.38202083
field min 25.737974686336
field max 32.884453739869
attr interpolationmode  none
attr title  "Latency time of file print, stats"
attr unit  s
statistic UCACnet.owner[62] 	latency:stats
field count 179
field mean 31.702290704931
field stddev 0.58507901497262
field sum 5674.7100361826
field sqrsum 179962.23974002
field min 30.134227785594
field max 33.381614203081
attr interpolationmode  none
attr title  "Latency time of file print, stats"
attr unit  s
statistic UCACnet.owner[63] 	latency:stats
field count 174
field mean 31.725049546195
field stddev 0.59807310300158
field sum 5520.1586210379
field sqrsum 175189.1863738
field min 29.91137573067
field max 33.301105660401
attr interpolationmode  none
attr title  "Latency time of file print, stats"
attr unit  s
statistic UCACnet.owner[64] 	latency:stats
field count 171
field mean 31.678863215883
field stddev 0.62856083715987
field sum 5417.085609916
field sqrsum 171674.27914868
field min 29.733959548987
field max 33.098320255411
attr interpolationmode  none
attr title  "Latency time of file print, stats"
attr unit  s
statistic UCACnet.owner[65] 	latency:stats
field count 174
field mean 31.682757242453
field stddev 0.71083937459186
field sum 5512.7997601868
field sqrsum 174748.1121509
field min 26.967522599275
field max 33.022278454246
attr interpolationmode  none
attr title  "Latency time of file print, stats"
attr unit  s
statistic UCACnet.owner[66] 	latency:stats
field count 179
field mean 31.67184975118
field stddev 0.61212857129356
field sum 5669.2611054612
field sqrsum 179622.6827794
field min 29.958987814249
field max 33.232660450518
attr interpolationmode  none
attr title  "Latency time of file print, stats"
attr unit  s
statistic UCACnet.owner[67] 	latency:stats
field count 179
field mean 31.618350761431
field stddev 0.90705073569191
field sum 5659.6847862961
field sqrsum 179096.34667685
field min 23.139227233718
field max 33.241788904055
attr interpolationmode  none
attr title  "Latency time of file print, stats"
attr unit  s
statistic UCACnet.owner[68] 	latency:stats
field count 177
field mean 31.625073699414
field stddev 1.5408102683293
field sum 5597.6380447962
field sqrsum 177443.55665513
field min 12.71032181463
field max 33.227698334814
attr interpolationmode  none
attr title  "Latency time of file print, stats"
attr unit  s
statistic UCACnet.owner[69] 	latency:stats
field count 176
field mean 31.717205064649
field stddev 0.61655864474794
field sum 5582.2280913783
field sqrsum 177119.19839031
field min 29.593392901295
field max 33.109704014911
attr interpolationmode  none
attr title  "Latency time of file print, stats"
attr unit  s
statistic UCACnet.owner[70] 	latency:stats
field count 174
field mean 31.754655784209
field stddev 0.5549339539567
field sum 5525.3101064524
field sqrsum 175507.59617434
field min 30.367152537335
field max 33.446198115983
attr interpolationmode  none
attr title  "Latency time of file print, stats"
attr unit  s
statistic UCACnet.owner[71] 	latency:stats
field count 180
field mean 31.652987935723
field stddev 0.81830564563922
field sum 5697.5378284302
field sqrsum 180463.95886584
field min 24.168642612181
field max 32.931144316306
attr interpolationmode  none
attr title  "Latency time of file print, stats"
attr unit  s
statistic UCACnet.owner[72] 	latency:stats
field count 171
field mean 31.720897027563
field stddev 0.64605846295291
field sum 5424.2733917132
field sqrsum 172133.77426927
field min 29.995219119211
field max 33.420040734891
attr interpolationmode  none
attr title  "Latency time of file print, stats"
attr unit  s
statistic UCACnet.owner[73] 	latency:stats
field count 178
field mean 31.630975083057
field stddev 0.68304902954537
field sum 5630.3135647842
field sqrsum 178174.88848537
field min 27.255588185892
field max 33.454277684941
attr interpolationmode  none
attr title  "Latency time of file print, stats"
attr unit  s
statistic UCACnet.owner[74] 	latency:stats
field count 170
field mean 31.767047768447
field stddev 0.60103119591545
field sum 5400.398120636
field sqrsum 171615.75437312
field min 30.07640694875
field max 33.424527732958
attr interpolationmode  none
attr title  "Latency time of file print, stats"
attr unit  s
statistic UCACnet.owner[75] 	latency:stats
field count 173
field mean 31.660994015473
field stddev 0.60046300442644
field sum 5477.3519646769
field sqrsum 173480.42337526
field min 29.792293211364
field max 33.141972325578
attr interpolationmode  none
attr title  "Latency time of file print, stats"
attr unit  s
statistic UCACnet.owner[76] 	latency:stats
field count 176
field mean 31.761089362858
field stddev 0.61722985030952
field sum 5589.9517278629
field sqrsum 177609.62658313
field min 30.153283835699
field max 32.994242205378
attr interpolationmode  none
attr title  "Latency time of file print, stats"
attr unit  s
statistic UCACnet.owner[77] 	latency:stats
field count 170
field mean 31.70391218003
field stddev 0.61542814517005
field sum 5389.6650706051
field sqrsum 170937.47713276
field min 30.086854685695
field max 33.474740931361
attr interpolationmode  none
attr title  "Latency time of file print, stats"
attr unit  s
statistic UCACnet.owner[78] 	latency:stats
field count 176
field mean 31.674483743744
field stddev 0.59885549289469
field sum 5574.7091388989
field sqrsum 176638.79387889
field min 29.658549805072
field max 33.54861795964
attr interpolationmode  none
attr title  "Latency time of file print, stats"
attr unit  s
statistic UCACnet.owner[79] 	latency:stats
field count 168
field mean 31.687087409193
field stddev 0.59445992700869
field sum 5323.4306847445
field sqrsum 168743.02831928
field min 29.764503468229
field max 33.219954550243
attr interpolationmode  none
attr title  "Latency time of file print, stats"
attr unit  s
statistic UCACnet.owner[80] 	latency:stats
field count 174
field mean 31.674298198471
field stddev 0.59681968142114
field sum 5511.3278865339
field sqrsum 174629.06446328
field min 29.629549322586
field max 33.420751423796
attr interpolationmode  none
attr title  "Latency time of file print, stats"
attr unit  s
statistic UCACnet.owner[81] 	latency:stats
field count 174
field mean 31.75145812801
field stddev 0.54441100220209
field sum 5524.7537142738
field sqrsum 175470.26054404
field min 30.166963693273
field max 33.447061671673
attr interpolationmode  none
attr title  "Latency time of file print, stats"
attr unit  s
statistic UCACnet.owner[82] 	latency:stats
field count 177
field mean 31.696022514932
field stddev 0.59660312476226
field sum 5610.195985143
field sqrsum 177883.54286904
field min 29.689492417502
field max 33.422938425533
attr interpolationmode  none
attr title  "Latency time of file print, stats"
attr unit  s
statistic UCACnet.owner[83] 	latency:stats
field count 172
field mean 31.676491626498
field stddev 0.60837205282428
field sum 5448.3565597577
field sqrsum 172648.11087419
field min 29.781682581298
field max 33.013695512258
attr interpolationmode  none
attr title  "Latency time of file print, stats"
attr unit  s
statistic UCACnet.owner[84] 	latency:stats
field count 176
field mean 31.667035664924
field stddev 0.59968840868032
field sum 5573.3982770266
field sqrsum 176555.93659624
field min 30.010403362194
field max 33.46092951207
attr interpolationmode  none
attr title  "Latency time of file print, stats"
attr unit  s
statistic UCACnet.owner[85] 	latency:stats
field count 174
field mean 31.615071183654
field stddev 1.0175168607792
field sum 5501.0223859557
field sqrsum 174094.32823208
field min 20.752395248889
field max 33.224028345381
attr interpolationmode  none
attr title  "Latency time of file print, stats"
attr unit  s
statistic UCACnet.owner[86] 	latency:stats
field count 173
field mean 31.592481210061
field stddev 1.229210785533
field sum 5465.4992493406
field sqrsum 172928.5673131
field min 17.526854601977
field max 33.116814462115
attr interpolationmode  none
attr title  "Latency time of file print, stats"
attr unit  s
statistic UCACnet.owner[87] 	latency:stats
field count 174
field mean 31.68721013392
field stddev 0.59126625186336
field sum 5513.5745633022
field sqrsum 174770.27584644
field min 30.211527927468
field max 32.982667058352
attr interpolationmode  none
attr title  "Latency time of file print, stats"
attr unit  s
statistic UCACnet.owner[88] 	latency:stats
field count 181
field mean 31.734578086379
field stddev 0.6314001867292
field sum 5743.9586336346
field sqrsum 182353.86369925
field min 29.967307414495
field max 33.462882831131
attr interpolationmode  none
attr title  "Latency time of file print, stats"
attr unit  s
statistic UCACnet.owner[89] 	latency:stats
field count 171
field mean 31.656125513899
field stddev 0.63686002064715
field sum 5413.1974628767
field sqrsum 171429.80873295
field min 29.616109908523
field max 33.429666191765
attr interpolationmode  none
attr title  "Latency time of file print, stats"
attr unit  s
statistic UCACnet.owner[90] 	latency:stats
field count 172
field mean 31.711669926997
field stddev 0.61988742708049
field sum 5454.4072274435
field sqrsum 173034.07017632
field min 29.994029728568
field max 33.481669758334
attr interpolationmode  none
attr title  "Latency time of file print, stats"
attr unit  s
statistic UCACnet.owner[91] 	latency:stats
field count 176
field mean 31.662100389784
field stddev 0.75323564031042
field sum 5572.529668602
field sqrsum 176537.28248005
field min 25.167746846462
field max 33.165458860453
attr interpolationmode  none
attr title  "Latency time of file print, stats"
attr unit  s
statistic UCACnet.owner[92] 	latency:stats
field count 174
field mean 31.67291611322
field stddev 0.71783400368036
field sum 5511.0874037003
field sqrsum 174641.35344866
field min 26.805940445813
field max 33.095537273157
attr interpolationmode  none
attr title  "Latency time of file print, stats"
attr unit  s
statistic UCACnet.owner[93] 	latency:stats
field count 172
field mean 31.680067873493
field stddev 0.59674588565714
field sum 5448.9716742409
field sqrsum 172684.68654719
field min 29.939485670126
field max 33.067158069406
attr interpolationmode  none
attr title  "Latency time of file print, stats"
attr unit  s
statistic UCACnet.owner[94] 	latency:stats
field count 166
field mean 31.653476582852
field stddev 0.95079941086162
field sum 5254.4771127534
field sqrsum 166471.63146442
field min 22.761720622356
field max 33.439703823068
attr interpolationmode  none
attr title  "Latency time of file print, stats"
attr unit  s
statistic UCACnet.owner[95] 	latency:stats
field count 176
field mean 31.731513654233
field stddev 0.59108058448967
field sum 5584.746403145
field sqrsum 177273.59759186
field min 30.268702199962
field max 33.392093122976
attr interpolationmode  none
attr title  "Latency time of file print, stats"
attr unit  s
statistic UCACnet.owner[96] 	latency:stats
field count 177
field mean 31.680358565862
field stddev 0.59769122488834
field sum 5607.4234661575
field sqrsum 177708.05936335
field min 29.712387863814
field max 33.416637167917
attr interpolationmode  none
attr title  "Latency time of file print, stats"
attr unit  s
statistic UCACnet.owner[97] 	latency:stats
field count 171
field mean 31.731553922896
field stddev 0.58225741893952
field sum 5426.0957208152
field sqrsum 172236.08298516
field min 30.373345774658
field max 33.473391908926
attr interpolationmode  none
attr title  "Latency time of file print, stats"
attr unit  s
statistic UCACnet.owner[98] 	latency:stats
field count 171
field mean 31.725082984685
field stddev 0.60124755884676
field sum 5424.9891903812
field sqrsum 172169.68702246
field min 30.146073113295
field max 33.172747725456
attr interpolationmode  none
attr title  "Latency time of file print, stats"
attr unit  s
statistic UCACnet.owner[99] 	latency:stats
field count 178
field mean 31.689628780549
field stddev 0.61406863698065
field sum 5640.7539229377
field sqrsum 178820.14107181
field min 29.660450485444
field max 33.196734884329
attr interpolationmode  none
attr title  "Latency time of file print, stats"
attr unit  s
statistic UCACnet.owner[100] 	latency:stats
field count 180
field mean 31.698196412169
field stddev 0.6202688978074
field sum 5705.6753541905
field sqrsum 180928.4853387
field min 30.262403026804
field max 33.345729571364
attr interpolationmode  none
attr title  "Latency time of file print, stats"
attr unit  s
statistic UCACnet.owner[101] 	latency:stats
field count 170
field mean 31.605406701825
field stddev 1.4047343318348
field sum 5372.9191393103
field sqrsum 170146.7786477
field min 15.19817594251
field max 33.206025908316
attr interpolationmode  none
attr title  "Latency time of file print, stats"
attr unit  s
statistic UCACnet.owner[102] 	latency:stats
field count 172
field mean 31.703527310229
field stddev 0.57580700122509
field sum 5453.0066973594
field sqrsum 172936.24243575
field min 29.625977094452
field max 33.367791994181
attr interpolationmode  none
attr title  "Latency time of file print, stats"
attr unit  s
statistic UCACnet.owner[103] 	latency:stats
field count 172
field mean 31.710395916409
field stddev 0.61738798385352
field sum 5454.1880976223
field sqrsum 173019.64369294
field min 29.946221740235
field max 33.477297454975
attr interpolationmode  none
attr title  "Latency time of file print, stats"
attr unit  s
statistic UCACnet.owner[104] 	latency:stats
field count 175
field mean 31.686827934171
field stddev 0.57582971539608
field sum 5545.19488848
field sqrsum 175767.33118855
field min 30.286721516419
field max 33.033247213559
attr interpolationmode  none
attr title  "Latency time of file print, stats"
attr unit  s
statistic UCACnet.owner[105] 	latency:stats
field count 169
field mean 31.697400584454
field stddev 0.58862034938634
field sum 5356.8606987727
field sqrsum 169856.76706195
field min 29.994575218902
field max 33.294917997236
attr interpolationmode  none
attr title  "Latency time of file print, stats"
attr unit  s
statistic UCACnet.owner[106] 	latency:stats
field count 174
field mean 31.631957863664
field stddev 0.98845657305679
field sum 5503.9606682775
field sqrsum 174270.08096887
field min 21.15165642508
field max 33.290661565161
attr interpolationmode  none
attr title  "Latency time of file print, stats"
attr unit  s
statistic UCACnet.owner[107] 	latency:stats
field count 176
field mean 31.686709596901
field stddev 0.63997200242321
field sum 5576.8608890546
field sqrsum 176784.04518247
field min 29.780576404783
field max 33.407743373118
attr interpolationmode  none
attr title  "Latency time of file print, stats"
attr unit  s
statistic UCACnet.owner[108] 	latency:stats
field count 175
field mean 31.732669717505
field stddev 0.68537575676543
field sum 5553.2172005634
field sqrsum 176300.14204251
field min 26.720992318885
field max 33.275596140066
attr interpolationmode  none
attr title  "Latency time of file print, stats"
attr unit  s
statistic UCACnet.owner[109] 	latency:stats
field count 177
field mean 31.6801062304
field stddev 0.64874816426128
field sum 5607.3788027809
field sqrsum 177716.43000198
field min 29.928371505722
field max 33.481815052439
attr interpolationmode  none
attr title  "Latency time of file print, stats"
attr unit  s
statistic UCACnet.owner[110] 	latency:stats
field count 172
field mean 31.668240175578
field stddev 0.80962000738946
field sum 5446.9373101994
field sqrsum 172607.00681985
field min 24.756872052384
field max 33.443270669427
attr interpolationmode  none
attr title  "Latency time of file print, stats"
attr unit  s
statistic UCACnet.owner[111] 	latency:stats
field count 176
field mean 31.657072858861
field stddev 0.62012866276619
field sum 5571.6448231595
field sqrsum 176449.26403317
field min 30.141361837114
field max 33.171145114447
attr interpolationmode  none
attr title  "Latency time of file print, stats"
attr unit  s
statistic UCACnet.owner[112] 	latency:stats
field count 175
field mean 31.719211895483
field stddev 0.61407632695818
field sum 5550.8620817095
field sqrsum 176134.58418629
field min 29.996544596685
field max 33.465376824616
attr interpolationmode  none
attr title  "Latency time of file print, stats"
attr unit  s
statistic UCACnet.owner[113] 	latency:stats
field count 171
field mean 31.68324654965
field stddev 0.58814318067977
field sum 5417.8351599901
field sqrsum 171713.41224749
field min 30.305105563595
field max 33.45539660619
attr interpolationmode  none
attr title  "Latency time of file print, stats"
attr unit  s
statistic UCACnet.owner[114] 	latency:stats
field count 177
field mean 31.637411566068
field stddev 0.66066328429782
field sum 5599.821847194
field sqrsum 177240.68824797
field min 28.115202173968
field max 33.042578771683
attr interpolationmode  none
attr title  "Latency time of file print, stats"
attr unit  s
statistic UCACnet.owner[115] 	latency:stats
field count 167
field mean 31.700669961549
field stddev 0.60727408604165
field sum 5294.0118835787
field sqrsum 167884.94127523
field min 30.066815072163
field max 33.159788473934
attr interpolationmode  none
attr title  "Latency time of file print, stats"
attr unit  s
statistic UCACnet.owner[116] 	latency:stats
field count 176
field mean 31.711753284351
field stddev 0.56981127064964
field sum 5581.2685780457
field sqrsum 177048.63201541
field min 30.073897810533
field max 33.411899962203
attr interpolationmode  none
attr title  "Latency time of file print, stats"
attr unit  s
statistic UCACnet.owner[117] 	latency:stats
field count 175
field mean 31.722601630906
field stddev 0.60040906956779
field sum 5551.4552854085
field sqrsum 176169.32993364
field min 30.204121312787
field max 32.966954073857
attr interpolationmode  none
attr title  "Latency time of file print, stats"
attr unit  s
statistic UCACnet.owner[118] 	latency:stats
field count 171
field mean 31.691196414991
field stddev 0.64890963071266
field sum 5419.1945869634
field sqrsum 171812.34429701
field min 27.923237421851
field max 33.463121111556
attr interpolationmode  none
attr title  "Latency time of file print, stats"
attr unit  s
statistic UCACnet.owner[119] 	latency:stats
field count 173
field mean 31.706983533306
field stddev 0.59404743218266
field sum 5485.308151262
field sqrsum 173983.27271166
field min 29.889814725597
field max 33.497822349739
attr interpolationmode  none
attr title  "Latency time of file print, stats"
attr unit  s
statistic UCACnet.owner[120] 	latency:stats
field count 175
field mean 31.665629342068
field stddev 0.78881628476488
field sum 5541.4851348618
field sqrsum 175582.88250192
field min 24.606732945179
field max 32.863876787308
attr interpolationmode  none
attr title  "Latency time of file print, stats"
attr unit  s
statistic UCACnet.owner[121] 	latency:stats
field count 177
field mean 31.614478007649
field stddev 0.565384781478
field sum 5595.7626073538
field sqrsum 176963.37403761
field min 30.200463945046
field max 33.19167377983
attr interpolationmode  none
attr title  "Latency time of file print, stats"
attr unit  s
statistic UCACnet.owner[122] 	latency:stats
field count 177
field mean 31.612336055784
field stddev 0.94820108117786
field sum 5595.3834818737
field sqrsum 177041.38200107
field min 21.716453408716
field max 33.053808714846
attr interpolationmode  none
attr title  "Latency time of file print, stats"
attr unit  s
statistic UCACnet.owner[123] 	latency:stats
field count 177
field mean 31.703435022539
field stddev 0.62494600237228
field sum 5611.5079989895
field sqrsum 177972.81734546
field min 30.014835119664
field max 33.442330446519
attr interpolationmode  none
attr title  "Latency time of file print, stats"
attr unit  s
statistic UCACnet.owner[124] 	latency:stats
field count 181
field mean 31.7054002841
field stddev 0.62386018592291
field sum 5738.677451422
field sqrsum 182017.12197436
field min 29.671307324905
field max 33.447285535145
attr interpolationmode  none
attr title  "Latency time of file print, stats"
attr unit  s
statistic UCACnet.owner[125] 	latency:stats
field count 174
field mean 31.704306622467
field stddev 0.58130899988518
field sum 5516.5493523093
field sqrsum 174956.83235011
field min 29.722449072898
field max 32.985941652896
attr interpolationmode  none
attr title  "Latency time of file print, stats"
attr unit  s
statistic UCACnet.owner[126] 	latency:stats
field count 174
field mean 31.626721651275
field stddev 0.85244065332517
field sum 5503.0495673219
field sqrsum 174169.12822553
field min 23.336884814119
field max 33.222244727635
attr interpolationmode  none
attr title  "Latency time of file print, stats"
attr unit  s
statistic UCACnet.owner[127] 	latency:stats
field count 168
field mean 31.697737979791
field stddev 0.65827050364507
field sum 5325.2199806049
field sqrsum 168869.79207931
field min 29.831295066264
field max 33.352129518249
attr interpolationmode  none
attr title  "Latency time of file print, stats"
attr unit  s
statistic UCACnet.owner[128] 	latency:stats
field count 176
field mean 31.660524986842
field stddev 0.75072119909653
field sum 5572.2523976842
field sqrsum 176519.06317566
field min 26.101201541568
field max 33.328315321216
attr interpolationmode  none
attr title  "Latency time of file print, stats"
attr unit  s
statistic UCACnet.owner[129] 	latency:stats
field count 170
field mean 31.66958721616
field stddev 0.66977817948097
field sum 5383.8298267472
field sqrsum 170579.48212997
field min 29.699999435034
field max 33.204804464366
attr interpolationmode  none
attr title  "Latency time of file print, stats"
attr unit  s
statistic UCACnet.owner[130] 	latency:stats
field count 172
field mean 31.656870611619
field stddev 0.63070173660372
field sum 5444.9817451985
field sqrsum 172439.10377076
field min 29.766377696141
field max 33.477662119205
attr interpolationmode  none
attr title  "Latency time of file print, stats"
attr unit  s
statistic UCACnet.owner[131] 	latency:stats
field count 173
field mean 31.707042381616
field stddev 0.61984505541521
field sum 5485.3183320195
field sqrsum 173989.30458754
field min 29.932100971607
field max 33.543313697858
attr interpolationmode  none
attr title  "Latency time of file print, stats"
attr unit  s
statistic UCACnet.owner[132] 	latency:stats
field count 180
field mean 31.649261394191
field stddev 0.59121315615316
field sum 5696.8670509543
field sqrsum 180364.20082989
field min 29.673894236004
field max 33.204581864947
attr interpolationmode  none
attr title  "Latency time of file print, stats"
attr unit  s
statistic UCACnet.owner[133] 	latency:stats
field count 175
field mean 31.6027067387
field stddev 1.6174975386502
field sum 5530.4736792725
field sqrsum 175233.17371418
field min 11.741361722332
field max 33.267758373002
attr interpolationmode  none
attr title  "Latency time of file print, stats"
attr unit  s
statistic UCACnet.owner[134] 	latency:stats
field count 180
field mean 31.684825502413
field stddev 1.0496268057419
field sum 5703.2685904344
field sqrsum 180904.27732252
field min 20.578558691391
field max 33.528635814714
attr interpolationmode  none
attr title  "Latency time of file print, stats"
attr unit  s
statistic UCACnet.owner[135] 	latency:stats
field count 180
field mean 31.733446810314
field stddev 0.60379113909513
field sum 5712.0204258565
field sqrsum 181327.35327274
field min 30.070685854185
field max 33.428988165077
attr interpolationmode  none
attr title  "Latency time of file print, stats"
attr unit  s
statistic UCACnet.owner[136] 	latency:stats
field count 175
field mean 31.682472575722
field stddev 0.61691747327599
field sum 5544.4327007514
field sqrsum 175727.55915687
field min 30.132428663857
field max 33.405867362337
attr interpolationmode  none
attr title  "Latency time of file print, stats"
attr unit  s
statistic UCACnet.owner[137] 	latency:stats
field count 168
field mean 31.711147091894
field stddev 0.6051231463664
field sum 5327.4727114381
field sqrsum 169001.42184218
field min 29.838230263748
field max 33.419863849101
attr interpolationmode  none
attr title  "Latency time of file print, stats"
attr unit  s
statistic UCACnet.owner[138] 	latency:stats
field count 179
field mean 31.656041628758
field stddev 1.0552590737477
field sum 5666.4314515476
field sqrsum 179575.00568156
field min 20.541659753551
field max 33.477962358304
attr interpolationmode  none
attr title  "Latency time of file print, stats"
attr unit  s
statistic UCACnet.owner[139] 	latency:stats
field count 172
field mean 31.615408506743
field stddev 0.60431821461314
field sum 5437.8502631598
field sqrsum 171982.30675457
field min 29.711335880447
field max 33.26997181451
attr interpolationmode  none
attr title  "Latency time of file print, stats"
attr unit  s
statistic UCACnet.owner[140] 	latency:stats
field count 174
field mean 31.664054745066
field stddev 0.60623370771327
field sum 5509.5455256414
field sqrsum 174518.13198469
field min 30.233023919438
field max 33.397889296845
attr interpolationmode  none
attr title  "Latency time of file print, stats"
attr unit  s
statistic UCACnet.owner[141] 	latency:stats
field count 175
field mean 31.700799901867
field stddev 0.58159363511931
field sum 5547.6399828267
field sqrsum 175923.4807244
field min 30.27328140331
field max 33.205386061491
attr interpolationmode  none
attr title  "Latency time of file print, stats"
attr unit  s
statistic UCACnet.owner[142] 	latency:stats
field count 170
field mean 31.693278869369
field stddev 0.62684018522
field sum 5387.8574077927
field sqrsum 170825.27226998
field min 30.147582915955
field max 33.462918106283
attr interpolationmode  none
attr title  "Latency time of file print, stats"
attr unit  s
statistic UCACnet.owner[143] 	latency:stats
field count 175
field mean 31.681531483244
field stddev 0.61301091487502
field sum 5544.2680095676
field sqrsum 175716.28763108
field min 29.420240117334
field max 33.327409341661
attr interpolationmode  none
attr title  "Latency time of file print, stats"
attr unit  s
statistic UCACnet.owner[144] 	latency:stats
field count 174
field mean 31.742954874036
field stddev 0.59706731825801
field sum 5523.2741480822
field sqrsum 175386.71470268
field min 30.382212699466
field max 33.127980133542
attr interpolationmode  none
attr title  "Latency time of file print, stats"
attr unit  s
statistic UCACnet.owner[145] 	latency:stats
field count 172
field mean 31.625804216322
field stddev 1.2587484671735
field sum 5439.6383252074
field sqrsum 172303.87723793
field min 16.960738242403
field max 33.533863877087
attr interpolationmode  none
attr title  "Latency time of file print, stats"
attr unit  s
statistic UCACnet.owner[146] 	latency:stats
field count 174
field mean 31.729297109517
field stddev 0.59599460812364
field sum 5520.8976970559
field sqrsum 175235.65459725
field min 30.092775428894
field max 33.407222537627
attr interpolationmode  none
attr title  "Latency time of file print, stats"
attr unit  s
statistic UCACnet.owner[147] 	latency:stats
field count 181
field mean 31.731967406936
field stddev 0.61140505526219
field sum 5743.4861006554
field sqrsum 182319.40065368
field min 29.84112502573
field max 33.441316816883
attr interpolationmode  none
attr title  "Latency time of file print, stats"
attr unit  s
statistic UCACnet.owner[148] 	latency:stats
field count 172
field mean 31.677212073884
field stddev 0.61940990200033
field sum 5448.480476708
field sqrsum 172658.27887626
field min 29.945549528701
field max 33.307554785117
attr interpolationmode  none
attr title  "Latency time of file print, stats"
attr unit  s
statistic UCACnet.owner[149] 	latency:stats
field count 175
field mean 31.595268765977
field stddev 1.5298056015034
field sum 5529.1720340459
field sqrsum 175102.88957004
field min 12.856106225179
field max 33.065666518995
attr interpolationmode  none
attr title  "Latency time of file print, stats"
attr unit  s
statistic UCACnet.owner[150] 	latency:stats
field count 176
field mean 31.570159568896
field stddev 1.3566723159876
field sum 5556.3480841257
field sqrsum 175736.89359645
field min 15.294244516058
field max 32.93569455085
attr interpolationmode  none
attr title  "Latency time of file print, stats"
attr unit  s
statistic UCACnet.owner[151] 	latency:stats
field count 179
field mean 31.663328588538
field stddev 0.60669474474887
field sum 5667.7358173483
field sqrsum 179524.89951309
field min 29.965627977023
field max 33.311784060896
attr interpolationmode  none
attr title  "Latency time of file print, stats"
attr unit  s
statistic UCACnet.owner[152] 	latency:stats
field count 174
field mean 31.698773557778
field stddev 0.63304727272953
field sum 5515.5865990533
field sqrsum 174906.66019267
field min 29.001905097003
field max 33.035989940906
attr interpolationmode  none
attr title  "Latency time of file print, stats"
attr unit  s
statistic UCACnet.owner[153] 	latency:stats
field count 176
field mean 31.694651894256
field stddev 0.60816444103318
field sum 5578.2587333891
field sqrsum 176865.69492865
field min 30.326343113171
field max 33.432157947852
attr interpolationmode  none
attr title  "Latency time of file print, stats"
attr unit  s
statistic UCACnet.owner[154] 	latency:stats
field count 171
field mean 31.68002325107
field stddev 0.94293504233298
field sum 5417.2839759331
field sqrsum 171770.8338192
field min 22.269439853528
field max 33.409331448306
attr interpolationmode  none
attr title  "Latency time of file print, stats"
attr unit  s
statistic UCACnet.owner[155] 	latency:stats
field count 175
field mean 31.744411992642
field stddev 0.60603039172074
field sum 5555.2720987124
field sqrsum 176412.75170616
field min 30.280128222978
field max 32.95909542998
attr interpolationmode  none
attr title  "Latency time of file print, stats"
attr unit  s
statistic UCACnet.owner[156] 	latency:stats
field count 174
field mean 31.754831432308
field stddev 0.62905368207559
field sum 5525.3406692216
field sqrsum 175524.71913375
field min 29.252246612827
field max 33.206958848862
attr interpolationmode  none
attr title  "Latency time of file print, stats"
attr unit  s
statistic UCACnet.owner[157] 	latency:stats
field count 173
field mean 31.706278134158
field stddev 0.6338705889992
field sum 5485.1861172093
field sqrsum 173983.94486072
field min 29.905955378599
field max 33.008481990361
attr interpolationmode  none
attr title  "Latency time of file print, stats"
attr unit  s
statistic UCACnet.owner[158] 	latency:stats
field count 174
field mean 31.674503956402
field stddev 0.97521324731391
field sum 5511.3636884139
field sqrsum 174734.24102568
field min 22.144121142387
field max 33.476636169786
attr interpolationmode  none
attr title  "Latency time of file print, stats"
attr unit  s
statistic UCACnet.owner[159] 	latency:stats
field count 173
field mean 31.714870477165
field stddev 0.601973995937
field sum 5486.6725925495
field sqrsum 174071.43872631
field min 30.188789722601
field max 33.507272241154
attr interpolationmode  none
attr title  "Latency time of file print, stats"
attr unit  s
statistic UCACnet.owner[160] 	latency:stats
field count 174
field mean 31.695512996426
field stddev 0.60857989916203
field sum 5515.0192613782
field sqrsum 174865.43859696
field min 29.413680144575
field max 32.990350882703
attr interpolationmode  none
attr title  "Latency time of file print, stats"
attr unit  s
statistic UCACnet.owner[161] 	latency:stats
field count 173
field mean 31.763662608094
field stddev 0.55749888910032
field sum 5495.1136312002
field sqrsum 174598.39383653
field min 30.46594265637
field max 33.382498936973
attr interpolationmode  none
attr title  "Latency time of file print, stats"
attr unit  s
statistic UCACnet.owner[162] 	latency:stats
field count 174
field mean 31.668947596768
field stddev 0.60154562311007
field sum 5510.3968818376
field sqrsum 174571.07137295
field min 30.026751705276
field max 33.403804536475
attr interpolationmode  none
attr title  "Latency time of file print, stats"
attr unit  s
statistic UCACnet.owner[163] 	latency:stats
field count 177
field mean 31.677195762313
field stddev 0.57940659666705
field sum 5606.8636499293
field sqrsum 177668.80276416
field min 30.129055361232
field max 33.156697208664
attr interpolationmode  none
attr title  "Latency time of file print, stats"
attr unit  s
statistic UCACnet.owner[164] 	latency:stats
field count 177
field mean 31.595639007145
field stddev 1.2155783110543
field sum 5592.4281042647
field sqrsum 176956.40254669
field min 17.869033491819
field max 33.220953126227
attr interpolationmode  none
attr title  "Latency time of file print, stats"
attr unit  s
statistic UCACnet.owner[165] 	latency:stats
field count 170
field mean 31.711097966843
field stddev 0.67567212844994
field sum 5390.8866543633
field sqrsum 171028.08887211
field min 27.054053025823
field max 33.223070741181
attr interpolationmode  none
attr title  "Latency time of file print, stats"
attr unit  s
statistic UCACnet.owner[166] 	latency:stats
field count 168
field mean 31.705313941884
field stddev 0.60122442037119
field sum 5326.4927422366
field sqrsum 168938.49022599
field min 30.170053310192
field max 33.460112235989
attr interpolationmode  none
attr title  "Latency time of file print, stats"
attr unit  s
statistic UCACnet.owner[167] 	latency:stats
field count 176
field mean 31.704597587811
field stddev 0.59962873128348
field sum 5580.0091754548
field sqrsum 176974.86750178
field min 29.877076935207
field max 33.230378154363
attr interpolationmode  none
attr title  "Latency time of file print, stats"
attr unit  s
statistic UCACnet.owner[168] 	latency:stats
field count 173
field mean 31.704741655188
field stddev 0.62297484669636
field sum 5484.9203063475
field sqrsum 173964.73410949
field min 30.050803816607
field max 33.214163573615
attr interpolationmode  none
attr title  "Latency time of file print, stats"
attr unit  s
statistic UCACnet.owner[169] 	latency:stats
field count 169
field mean 31.699495581994
field stddev 0.59135735029768
field sum 5357.214753357
field sqrsum 169879.75559648
field min 29.808394048954
field max 32.898850957773
attr interpolationmode  none
attr title  "Latency time of file print, stats"
attr unit  s
statistic UCACnet.owner[170] 	latency:stats
field count 170
field mean 31.693758510694
field stddev 0.63608282820189
field sum 5387.938946818
field sqrsum 170832.41348138
field min 28.513859105662
field max 33.447895320203
attr interpolationmode  none
attr title  "Latency time of file print, stats"
attr unit  s
statistic UCACnet.owner[171] 	latency:stats
field count 171
field mean 31.696995548359
field stddev 0.60073682868465
field sum 5420.1862387693
field sqrsum 171864.96948689
field min 30.175997211743
field max 33.297250803472
attr interpolationmode  none
attr title  "Latency time of file print, stats"
attr unit  s
statistic UCACnet.owner[172] 	latency:stats
field count 171
field mean 31.720096095963
field stddev 0.61125848983795
field sum 5424.1364324096
field sqrsum 172117.64715368
field min 30.119685456121
field max 33.241341718945
attr interpolationmode  none
attr title  "Latency time of file print, stats"
attr unit  s
statistic UCACnet.owner[173] 	latency:stats
field count 172
field mean 31.724834695246
field stddev 0.6032434511949
field sum 5456.6715675823
field sqrsum 173174.2308229
field min 29.66872333048
field max 33.222084175889
attr interpolationmode  none
attr title  "Latency time of file print, stats"
attr unit  s
statistic UCACnet.owner[174] 	latency:stats
field count 176
field mean 31.633453749985
field stddev 1.0378731675615
field sum 5567.4878599973
field sqrsum 176307.37634741
field min 20.379504422458
field max 33.405988063292
attr interpolationmode  none
attr title  "Latency time of file print, stats"
attr unit  s
statistic UCACnet.owner[175] 	latency:stats
field count 174
field mean 31.662316583085
field stddev 0.6061213956922
field sum 5509.2430854567
field sqrsum 174498.95598921
field min 30.014182579383
field max 32.828383538009
attr interpolationmode  none
attr title  "Latency time of file print, stats"
attr unit  s
statistic UCACnet.owner[176] 	latency:stats
field count 179
field mean 31.714972266349
field stddev 0.57103157229942
field sum 5676.9800356765
field sqrsum 180103.30610417
field min 30.210242683206
field max 33.303051095898
attr interpolationmode  none
attr title  "Latency time of file print, stats"
attr unit  s
statistic UCACnet.owner[177] 	latency:stats
field count 175
field mean 31.630272181318
field stddev 1.1308334190501
field sum 5535.2976317306
field sqrsum 175305.47915081
field min 19.292302683245
field max 33.489643407024
attr interpolationmode  none
attr title  "Latency time of file print, stats"
attr unit  s
statistic UCACnet.owner[178] 	latency:stats
field count 174
field mean 31.719648202951
field stddev 0.5829243011388
field sum 5519.2187873134
field sqrsum 175126.46381687
field min 30.333805077085
field max 33.223227509192
attr interpolationmode  none
attr title  "Latency time of file print, stats"
attr unit  s
statistic UCACnet.owner[179] 	latency:stats
field count 170
field mean 31.719615125114
field stddev 0.64156396438449
field sum 5392.3345712694
field sqrsum 171112.33835666
field min 28.82260335135
field max 33.128161995465
attr interpolationmode  none
attr title  "Latency time of file print, stats"
attr unit  s
statistic UCACnet.owner[180] 	latency:stats
field count 172
field mean 31.683224728236
field stddev 0.58925860296218
field sum 5449.5146532566
field sqrsum 172717.57301384
field min 29.646732977013
field max 33.33248834243
attr interpolationmode  none
attr title  "Latency time of file print, stats"
attr unit  s
statistic UCACnet.owner[181] 	latency:stats
field count 178
field mean 31.573330066264
field stddev 1.6554453188404
field sum 5620.0527517951
field sqrsum 177928.84888129
field min 11.12
field max 33.046623163454
attr interpolationmode  none
attr title  "Latency time of file print, stats"
attr unit  s
statistic UCACnet.owner[182] 	latency:stats
field count 170
field mean 31.685242705111
field stddev 0.61381154996759
field sum 5386.4912598689
field sqrsum 170735.9561185
field min 29.407452539246
field max 33.473548405732
attr interpolationmode  none
attr title  "Latency time of file print, stats"
attr unit  s
statistic UCACnet.owner[183] 	latency:stats
field count 174
field mean 31.694448681274
field stddev 0.61640364199977
field sum 5514.8340705417
field sqrsum 174855.35738135
field min 29.39853173226
field max 33.367336266418
attr interpolationmode  none
attr title  "Latency time of file print, stats"
attr unit  s
statistic UCACnet.owner[184] 	latency:stats
field count 179
field mean 31.669872205907
field stddev 0.90336348673254
field sum 5668.9071248574
field sqrsum 179678.82386626
field min 23.002700371033
field max 33.381876276291
attr interpolationmode  none
attr title  "Latency time of file print, stats"
attr unit  s
statistic UCACnet.owner[185] 	latency:stats
field count 178
field mean 31.717449686806
field stddev 0.6398278931085
field sum 5645.7060442515
field sqrsum 179139.85761775
field min 29.593600367512
field max 33.474200964846
attr interpolationmode  none
attr title  "Latency time of file print, stats"
attr unit  s
statistic UCACnet.owner[186] 	latency:stats
field count 176
field mean 31.70676821077
field stddev 0.60191016238279
field sum 5580.3912050955
field sqrsum 176999.57223801
field min 30.144698019267
field max 33.440669405551
attr interpolationmode  none
attr title  "Latency time of file print, stats"
attr unit  s
statistic UCACnet.owner[187] 	latency:stats
field count 172
field mean 31.701928606858
field stddev 0.62042785407572
field sum 5452.7317203795
field sqrsum 172927.9348653
field min 29.597353995215
field max 33.166773674237
attr interpolationmode  none
attr title  "Latency time of file print, stats"
attr unit  s
statistic UCACnet.owner[188] 	latency:stats
field count 175
field mean 31.665720125134
field stddev 0.62044626395029
field sum 5541.5010218985
field sqrsum 175542.60235315
field min 29.165465836379
field max 33.119591235015
attr interpolationmode  none
attr title  "Latency time of file print, stats"
attr unit  s
statistic UCACnet.owner[189] 	latency:stats
field count 178
field mean 31.682958156848
field stddev 0.67141609459676
field sum 5639.566551919
field sqrsum 178757.94261147
field min 28.484830269017
field max 33.164823777964
attr interpolationmode  none
attr title  "Latency time of file print, stats"
attr unit  s
statistic UCACnet.owner[190] 	latency:stats
field count 176
field mean 31.633701888726
field stddev 0.7431391847405
field sum 5567.5315324159
field sqrsum 176218.27752591
field min 25.578503120968
field max 33.413282084468
attr interpolationmode  none
attr title  "Latency time of file print, stats"
attr unit  s
statistic UCACnet.owner[191] 	latency:stats
field count 171
field mean 31.732971895865
field stddev 0.60631481429235
field sum 5426.3381941929
field sqrsum 172256.33241497
field min 30.213444466457
field max 32.992578049615
attr interpolationmode  none
attr title  "Latency time of file print, stats"
attr unit  s
statistic UCACnet.owner[192] 	latency:stats
field count 173
field mean 31.728212155725
field stddev 0.59701001567594
field sum 5488.9807029404
field sqrsum 174216.84866649
field min 29.838384155975
field max 33.38531893727
attr interpolationmode  none
attr title  "Latency time of file print, stats"
attr unit  s
statistic UCACnet.owner[193] 	latency:stats
field count 175
field mean 31.710315513858
field stddev 0.58672396443514
field sum 5549.3052149251
field sqrsum 176030.11787979
field min 29.753789471475
field max 33.316500679859
attr interpolationmode  none
attr title  "Latency time of file print, stats"
attr unit  s
statistic UCACnet.owner[194] 	latency:stats
field count 178
field mean 31.553235637276
field stddev 1.5374843949867
field sum 5616.4759434351
field sqrsum 177636.39180717
field min 12.906882918684
field max 33.084350848782
attr interpolationmode  none
attr title  "Latency time of file print, stats"
attr unit  s
statistic UCACnet.owner[195] 	latency:stats
field count 173
field mean 31.664519176818
field stddev 0.76643757273369
field sum 5477.9618175895
field sqrsum 173558.06439004
field min 24.919484986793
field max 33.39124453857
attr interpolationmode  none
attr title  "Latency time of file print, stats"
attr unit  s
statistic UCACnet.owner[196] 	latency:stats
field count 168
field mean 31.770319551758
field stddev 0.58537667266346
field sum 5337.4136846953
field sqrsum 169628.56353946
field min 30.033575070554
field max 33.163297547733
attr interpolationmode  none
attr title  "Latency time of file print, stats"
attr unit  s
statistic UCACnet.owner[197] 	latency:stats
field count 172
field mean 31.648963570316
field stddev 0.59778406032967
field sum 5443.6217340943
field sqrsum 172346.09208178
field min 30.033461742848
field max 32.967685859026
attr interpolationmode  none
attr title  "Latency time of file print, stats"
attr unit  s
statistic UCACnet.owner[198] 	latency:stats
field count 180
field mean 31.556747732722
field stddev 1.6706354834691
field sum 5680.2145918899
field sqrsum 179748.69204643
field min 10.726942101717
field max 33.008372212234
attr interpolationmode  none
attr title  "Latency time of file print, stats"
attr unit  s
statistic UCACnet.owner[199] 	latency:stats
field count 175
field mean 31.679309683447
field stddev 0.85472611964883
field sum 5543.8791946032
field sqrsum 175753.38272614
field min 23.842592444335
field max 33.350771294715
attr interpolationmode  none
attr title  "Latency time of file print, stats"
attr unit  s
statistic UCACnet.owner[200] 	latency:stats
field count 175
field mean 31.72175609949
field stddev 0.58595260551547
field sum 5551.3073174108
field sqrsum 176156.95799555
field min 30.477342362859
field max 33.475666086916
attr interpolationmode  none
attr title  "Latency time of file print, stats"
attr unit  s
statistic UCACnet.owner[201] 	latency:stats
field count 170
field mean 31.729126738582
field stddev 0.59540167428989
field sum 5393.951545559
field sqrsum 171205.28324379
field min 30.286374686222
field max 33.261177185156
attr interpolationmode  none
attr title  "Latency time of file print, stats"
attr unit  s
statistic UCACnet.owner[202] 	latency:stats
field count 173
field mean 31.632952979215
field stddev 0.66004964481408
field sum 5472.5008654041
field sqrsum 173186.29702582
field min 28.614790898094
field max 33.439286565744
attr interpolationmode  none
attr title  "Latency time of file print, stats"
attr unit  s
statistic UCACnet.owner[203] 	latency:stats
field count 176
field mean 31.685350686524
field stddev 0.61466625415037
field sum 5576.6217208282
field sqrsum 176763.33242623
field min 29.872475662363
field max 33.468920972275
attr interpolationmode  none
attr title  "Latency time of file print, stats"
attr unit  s
statistic UCACnet.owner[204] 	latency:stats
field count 177
field mean 31.731374725984
field stddev 0.61966772737947
field sum 5616.4533264992
field sqrsum 178285.3670384
field min 29.616921686961
field max 33.485689677077
attr interpolationmode  none
attr title  "Latency time of file print, stats"
attr unit  s
statistic UCACnet.owner[205] 	latency:stats
field count 174
field mean 31.715151518088
field stddev 0.62544017183499
field sum 5518.4363641473
field sqrsum 175085.71877754
field min 29.150540124288
field max 33.472777910141
attr interpolationmode  none
attr title  "Latency time of file print, stats"
attr unit  s
statistic UCACnet.owner[206] 	latency:stats
field count 170
field mean 31.681395215058
field stddev 0.61065602412155
field sum 5385.8371865598
field sqrsum 170693.85670314
field min 29.883537567043
field max 33.176713243617
attr interpolationmode  none
attr title  "Latency time of file print, stats"
attr unit  s
statistic UCACnet.owner[207] 	latency:stats
field count 171
field mean 31.712451238631
field stddev 0.61535272115236
field sum 5422.8291618059
field sqrsum 172035.57739434
field min 29.866770598211
field max 33.323128707859
attr interpolationmode  none
attr title  "Latency time of file print, stats"
attr unit  s
statistic UCACnet.owner[208] 	latency:stats
field count 171
field mean 31.665962854414
field stddev 0.64599528343719
field sum 5414.8796481047
field sqrsum 171538.32048206
field min 28.01579778156
field max 33.372601915249
attr interpolationmode  none
attr title  "Latency time of file print, stats"
attr unit  s
statistic UCACnet.owner[209] 	latency:stats
field count 169
field mean 31.702197171166
field stddev 0.58741723778864
field sum 5357.671321927
field sqrsum 169907.92253992
field min 30.110657920217
field max 33.450514318311
attr interpolationmode  none
attr title  "Latency time of file print, stats"
attr unit  s
statistic UCACnet.owner[210] 	latency:stats
field count 177
field mean 31.667972852219
field stddev 0.63592769739695
field sum 5605.2311948428
field sqrsum 177577.48441909
field min 29.780043644601
field max 33.461572361525
attr interpolationmode  none
attr title  "Latency time of file print, stats"
attr unit  s
statistic UCACnet.owner[211] 	latency:stats
field count 174
field mean 31.689913780776
field stddev 0.60317580054754
field sum 5514.044997855
field sqrsum 174802.55160636
field min 29.921273448362
field max 33.224313827905
attr interpolationmode  none
attr title  "Latency time of file print, stats"
attr unit  s
statistic UCACnet.owner[212] 	latency:stats
field count 176
field mean 31.695181452555
field stddev 0.60021751739844
field sum 5578.3519356498
field sqrsum 176869.92249357
field min 29.73964760675
field max 33.424098798782
attr interpolationmode  none
attr title  "Latency time of file print, stats"
attr unit  s
statistic UCACnet.owner[213] 	latency:stats
field count 172
field mean 31.739294381724
field stddev 0.56533565537059
field sum 5459.1586336566
field sqrsum 173324.49530311
field min 29.956370251046
field max 33.339644901496
attr interpolationmode  none
attr title  "Latency time of file print, stats"
attr unit  s
statistic UCACnet.owner[214] 	latency:stats
field count 173
field mean 31.717180155045
field stddev 0.58326122453881
field sum 5487.0721668228
field sqrsum 174092.96974769
field min 30.073396942115
field max 33.333799390996
attr interpolationmode  none
attr title  "Latency time of file print, stats"
attr unit  s
statistic UCACnet.owner[215] 	latency:stats
field count 175
field mean 31.738065214282
field stddev 0.60342627644795
field sum 5554.1614124993
field sqrsum 176341.69456972
field min 29.425168291211
field max 33.483420206452
attr interpolationmode  none
attr title  "Latency time of file print, stats"
attr unit  s
statistic UCACnet.owner[216] 	latency:stats
field count 175
field mean 31.692517415158
field stddev 0.68858012422478
field sum 5546.1905476526
field sqrsum 175855.24132948
field min 27.313807577729
field max 33.219269686119
attr interpolationmode  none
attr title  "Latency time of file print, stats"
attr unit  s
statistic UCACnet.owner[217] 	latency:stats
field count 170
field mean 31.729208183846
field stddev 0.55868482979231
field sum 5393.9653912539
field sqrsum 171199.00059246
field min 30.348213469545
field max 33.064786384989
attr interpolationmode  none
attr title  "Latency time of file print, stats"
attr unit  s
statistic UCACnet.owner[218] 	latency:stats
field count 170
field mean 31.672888229086
field stddev 0.59076959570828
field sum 5384.3909989447
field sqrsum 170598.19676414
field min 29.967281303402
field max 32.998880250686
attr interpolationmode  none
attr title  "Latency time of file print, stats"
attr unit  s
statistic UCACnet.owner[219] 	latency:stats
field count 169
field mean 31.691372448645
field stddev 0.58776240406756
field sum 5355.8419438211
field sqrsum 169792.01987784
field min 30.21263847141
field max 33.555927871311
attr interpolationmode  none
attr title  "Latency time of file print, stats"
attr unit  s
statistic UCACnet.owner[220] 	latency:stats
field count 175
field mean 31.709007917734
field stddev 0.55893062967386
field sum 5549.0763856035
field sqrsum 176010.0652473
field min 30.218946889837
field max 32.987389629967
attr interpolationmode  none
attr title  "Latency time of file print, stats"
attr unit  s
statistic UCACnet.owner[221] 	latency:stats
field count 172
field mean 31.73067870551
field stddev 0.60750098931597
field sum 5457.6767373476
field sqrsum 173238.89585561
field min 30.150393244368
field max 33.047927613166
attr interpolationmode  none
attr title  "Latency time of file print, stats"
attr unit  s
statistic UCACnet.owner[222] 	latency:stats
field count 171
field mean 31.730880012172
field stddev 0.57012355895154
field sum 5425.9804820814
field sqrsum 172226.39257363
field min 30.251384989492
field max 33.113195549939
attr interpolationmode  none
attr title  "Latency time of file print, stats"
attr unit  s
statistic UCACnet.owner[223] 	latency:stats
field count 177
field mean 31.657479864082
field stddev 0.60265905843474
field sum 5603.3739359425
field sqrsum 177452.62038559
field min 29.604891988059
field max 33.482511318013
attr interpolationmode  none
attr title  "Latency time of file print, stats"
attr unit  s
statistic UCACnet.owner[224] 	latency:stats
field count 176
field mean 31.672730361741
field stddev 0.58041806732655
field sum 5574.4005436664
field sqrsum 176615.44024614
field min 30.253212095364
field max 33.481621834175
attr interpolationmode  none
attr title  "Latency time of file print, stats"
attr unit  s
statistic UCACnet.owner[225] 	latency:stats
field count 179
field mean 31.670194701256
field stddev 0.92545159272813
field sum 5668.9648515249
field sqrsum 179689.67059816
field min 21.958741033019
field max 33.472278742456
attr interpolationmode  none
attr title  "Latency time of file print, stats"
attr unit  s
statistic UCACnet.owner[226] 	latency:stats
field count 179
field mean 31.670772251896
field stddev 0.61084096412213
field sum 5669.0682330893
field sqrsum 179610.18544028
field min 29.291806173899
field max 32.969962992709
attr interpolationmode  none
attr title  "Latency time of file print, stats"
attr unit  s
statistic UCACnet.owner[227] 	latency:stats
field count 171
field mean 31.757092680506
field stddev 0.58961041406483
field sum 5430.4628483665
field sqrsum 172514.81084848
field min 30.040681805364
field max 33.039821920999
attr interpolationmode  none
attr title  "Latency time of file print, stats"
attr unit  s
statistic UCACnet.owner[228] 	latency:stats
field count 171
field mean 31.708390077807
field stddev 0.58004102608197
field sum 5422.1347033049
field sqrsum 171984.35831743
field min 30.101357390886
field max 33.394655438473
attr interpolationmode  none
attr title  "Latency time of file print, stats"
attr unit  s
statistic UCACnet.owner[229] 	latency:stats
field count 178
field mean 31.700020802265
field stddev 0.56864459499862
field sum 5642.6037028032
field sqrsum 178927.88888935
field min 29.993382747861
field max 32.884027152672
attr interpolationmode  none
attr title  "Latency time of file print, stats"
attr unit  s
statistic UCACnet.owner[230] 	latency:stats
field count 175
field mean 31.711775024214
field stddev 0.59817357254351
field sum 5549.5606292374
field sqrsum 176048.67737999
field min 30.283818775639
field max 33.157731245435
attr interpolationmode  none
attr title  "Latency time of file print, stats"
attr unit  s
statistic UCACnet.owner[231] 	latency:stats
field count 176
field mean 31.717250582884
field stddev 0.60590144698666
field sum 5582.2361025875
field sqrsum 177117.4266772
field min 29.994398340214
field max 33.433187338203
attr interpolationmode  none
attr title  "Latency time of file print, stats"
attr unit  s
statistic UCACnet.owner[232] 	latency:stats
field count 172
field mean 31.706417636348
field stddev 0.58135950016866
field sum 5453.5038334519
field sqrsum 172968.86451135
field min 30.236419517968
field max 32.944125282749
attr interpolationmode  none
attr title  "Latency time of file print, stats"
attr unit  s
statistic UCACnet.owner[233] 	latency:stats
field count 171
field mean 31.721923544835
field stddev 0.66566301250292
field sum 5424.4489261668
field sqrsum 172149.28234058
field min 28.08190274594
field max 33.182808182094
attr interpolationmode  none
attr title  "Latency time of file print, stats"
attr unit  s
statistic UCACnet.owner[234] 	latency:stats
field count 177
field mean 31.697184845771
field stddev 0.59489036206062
field sum 5610.4017177014
field sqrsum 177896.22574456
field min 30.233506725749
field max 33.306649243376
attr interpolationmode  none
attr title  "Latency time of file print, stats"
attr unit  s
statistic UCACnet.owner[235] 	latency:stats
field count 175
field mean 31.695800722263
field stddev 0.6147856382975
field sum 5546.7651263961
field sqrsum 175874.92737975
field min 29.662619082573
field max 33.027419900539
attr interpolationmode  none
attr title  "Latency time of file print, stats"
attr unit  s
statistic UCACnet.owner[236] 	latency:stats
field count 173
field mean 31.712998697467
field stddev 0.57192998647424
field sum 5486.3487746617
field sqrsum 174044.83341712
field min 30.164255601897
field max 33.043607266314
attr interpolationmode  none
attr title  "Latency time of file print, stats"
attr unit  s
statistic UCACnet.owner[237] 	latency:stats
field count 172
field mean 31.627372355196
field stddev 0.6268659016542
field sum 5439.9080450936
field sqrsum 172117.19362703
field min 29.696503116384
field max 33.008799039315
attr interpolationmode  none
attr title  "Latency time of file print, stats"
attr unit  s
statistic UCACnet.owner[238] 	latency:stats
field count 174
field mean 31.750716262569
field stddev 0.59387459219327
field sum 5524.624629687
field sqrsum 175471.8039308
field min 29.628042941891
field max 33.476178170194
attr interpolationmode  none
attr title  "Latency time of file print, stats"
attr unit  s
statistic UCACnet.owner[239] 	latency:stats
field count 175
field mean 31.718946908006
field stddev 0.61603238033031
field sum 5550.815708901
field sqrsum 176132.06105225
field min 30.328905658311
field max 33.391393402273
attr interpolationmode  none
attr title  "Latency time of file print, stats"
attr unit  s
statistic UCACnet.owner[240] 	latency:stats
field count 175
field mean 31.71516039554
field stddev 0.63593583311911
field sum 5550.1530692195
field sqrsum 176094.36291288
field min 29.704183737363
field max 33.363749648403
attr interpolationmode  none
attr title  "Latency time of file print, stats"
attr unit  s
statistic UCACnet.owner[241] 	latency:stats
field count 176
field mean 31.729031436564
field stddev 0.62572354128842
field sum 5584.3095328353
field sqrsum 177253.25046011
field min 29.595267777583
field max 33.505658665276
attr interpolationmode  none
attr title  "Latency time of file print, stats"
attr unit  s
statistic UCACnet.owner[242] 	latency:stats
field count 173
field mean 31.662361003604
field stddev 0.6064677665476
field sum 5477.5884536235
field sqrsum 173496.64518992
field min 30.316830015935
field max 33.502392125943
attr interpolationmode  none
attr title  "Latency time of file print, stats"
attr unit  s
statistic UCACnet.owner[243] 	latency:stats
field count 175
field mean 31.754285417547
field stddev 0.59180592860292
field sum 5556.9999480707
field sqrsum 176519.50317707
field min 29.872555126314
field max 33.092571892034
attr interpolationmode  none
attr title  "Latency time of file print, stats"
attr unit  s
statistic UCACnet.owner[244] 	latency:stats
field count 171
field mean 31.645735725904
field stddev 0.60681333211397
field sum 5411.4208091295
field sqrsum 171310.99063877
field min 29.544620873944
field max 32.86824379725
attr interpolationmode  none
attr title  "Latency time of file print, stats"
attr unit  s
statistic UCACnet.owner[245] 	latency:stats
field count 177
field mean 31.685258717943
field stddev 0.69761850243996
field sum 5608.2907930759
field sqrsum 177785.79894126
field min 27.507435089886
field max 33.407676719035
attr interpolationmode  none
attr title  "Latency time of file print, stats"
attr unit  s
statistic UCACnet.owner[246] 	latency:stats
field count 177
field mean 31.683960846076
field stddev 0.61756371568966
field sum 5608.0610697555
field sqrsum 177752.71110649
field min 30.290462693595
field max 33.538323473604
attr interpolationmode  none
attr title  "Latency time of file print, stats"
attr unit  s
statistic UCACnet.owner[247] 	latency:stats
field count 175
field mean 31.751431071507
field stddev 0.62398896105752
field sum 5556.5004375136
field sqrsum 176494.5896674
field min 29.957325518352
field max 33.048980024983
attr interpolationmode  none
attr title  "Latency time of file print, stats"
attr unit  s
statistic UCACnet.owner[248] 	latency:stats
field count 178
field mean 31.710704148648
field stddev 0.640573758771
field sum 5644.5053384593
field sqrsum 179063.8681024
field min 29.630059161455
field max 33.019177502803
attr interpolationmode  none
attr title  "Latency time of file print, stats"
attr unit  s
statistic UCACnet.owner[249] 	latency:stats
field count 174
field mean 31.71785376659
field stddev 0.62808400087945
field sum 5518.9065553867
field sqrsum 175116.11776084
field min 30.025856836787
field max 33.477471851702
attr interpolationmode  none
attr title  "Latency time of file print, stats"
attr unit  s
statistic UCACnet.owner[250] 	latency:stats
field count 174
field mean 31.722088326044
field stddev 0.60884691505113
field sum 5519.6433687317
field sqrsum 175158.74463108
field min 30.138242822759
field max 33.439978702575
attr interpolationmode  none
attr title  "Latency time of file print, stats"
attr unit  s
statistic UCACnet.owner[251] 	latency:stats
field count 174
field mean 31.66613261647
field stddev 0.58394650506216
field sum 5509.9070752658
field sqrsum 174536.44002889
field min 29.965922207907
field max 33.171831884097
attr interpolationmode  none
attr title  "Latency time of file print, stats"
attr unit  s
statistic UCACnet.owner[252] 	latency:stats
field count 179
field mean 31.583417439602
field stddev 1.5477091412986
field sum 5653.4317216888
field sqrsum 178981.07587071
field min 12.73820969316
field max 33.265915378985
attr interpolationmode  none
attr title  "Latency time of file print, stats"
attr unit  s
statistic UCACnet.owner[253] 	latency:stats
field count 178
field mean 31.677181935203
field stddev 0.65400372267299
field sum 5638.5383844662
field sqrsum 178688.71284722
field min 29.611797324431
field max 33.369287431416
attr interpolationmode  none
attr title  "Latency time of file print, stats"
attr unit  s
statistic UCACnet.owner[254] 	latency:stats
field count 179
field mean 31.666873987024
field stddev 0.61886713514471
field sum 5668.3704436773
[...]
field mean 31.741966712723
field stddev 0.63121002114514
field sum 5396.1343411629
field sqrsum 171351.25064392
field min 30.104242427463
field max 33.493825397774
attr interpolationmode  none
attr title  "Latency time of file print, stats"
attr unit  s
statistic UCACnet.owner[437] 	latency:stats
field count 174
field mean 31.698416143939
field stddev 0.6013764608644
field sum 5515.5244090455
field sqrsum 174895.95405103
field min 29.938277224765
field max 33.508207620778
attr interpolationmode  none
attr title  "Latency time of file print, stats"
attr unit  s
statistic UCACnet.owner[438] 	latency:stats
field count 177
field mean 31.722475271812
field stddev 0.56707052396226
field sum 5614.8781231107
field sqrsum 178174.42855495
field min 29.997746067453
field max 33.057388052346
attr interpolationmode  none
attr title  "Latency time of file print, stats"
attr unit  s
statistic UCACnet.owner[439] 	latency:stats
field count 176
field mean 31.663190346895
field stddev 0.59587739712474
field sum 5572.7215010535
field sqrsum 176512.27886576
field min 29.920765082787
field max 33.442340169663
attr interpolationmode  none
attr title  "Latency time of file print, stats"
attr unit  s
statistic UCACnet.owner[440] 	latency:stats
field count 176
field mean 31.763018569867
field stddev 0.59316692318871
field sum 5590.2912682965
field sqrsum 177626.09859065
field min 30.367308826638
field max 33.462964577669
attr interpolationmode  none
attr title  "Latency time of file print, stats"
attr unit  s
statistic UCACnet.owner[441] 	latency:stats
field count 174
field mean 31.588178704913
field stddev 1.7211325736553
field sum 5496.3430946549
field sqrsum 174131.94533662
field min 10.343453987689
field max 33.385369230679
attr interpolationmode  none
attr title  "Latency time of file print, stats"
attr unit  s
statistic UCACnet.owner[442] 	latency:stats
field count 172
field mean 31.742237559251
field stddev 0.56235093580484
field sum 5459.6648601913
field sqrsum 173356.05578241
field min 30.201674817598
field max 33.376093957484
attr interpolationmode  none
attr title  "Latency time of file print, stats"
attr unit  s
statistic UCACnet.owner[443] 	latency:stats
field count 174
field mean 31.697349241383
field stddev 0.6462627023608
field sum 5515.3387680007
field sqrsum 174893.87351198
field min 29.634374568475
field max 33.004515796983
attr interpolationmode  none
attr title  "Latency time of file print, stats"
attr unit  s
statistic UCACnet.owner[444] 	latency:stats
field count 174
field mean 31.674922513644
field stddev 0.59306516605762
field sum 5511.436517374
field sqrsum 174635.17327507
field min 28.714260957912
field max 32.909509813705
attr interpolationmode  none
attr title  "Latency time of file print, stats"
attr unit  s
statistic UCACnet.owner[445] 	latency:stats
field count 174
field mean 31.744110561446
field stddev 0.58825798781663
field sum 5523.4752376916
field sqrsum 175397.67483931
field min 30.340368081776
field max 33.400653336581
attr interpolationmode  none
attr title  "Latency time of file print, stats"
attr unit  s
statistic UCACnet.owner[446] 	latency:stats
field count 171
field mean 31.765877734672
field stddev 0.61082081844118
field sum 5431.965092629
field sqrsum 172614.56634374
field min 30.16326986978
field max 33.420992252141
attr interpolationmode  none
attr title  "Latency time of file print, stats"
attr unit  s
statistic UCACnet.owner[447] 	latency:stats
field count 174
field mean 31.674293816567
field stddev 0.59439839511249
field sum 5511.3271240827
field sqrsum 174628.51718263
field min 29.713384158769
field max 33.203433800292
attr interpolationmode  none
attr title  "Latency time of file print, stats"
attr unit  s
statistic UCACnet.owner[448] 	latency:stats
field count 173
field mean 31.661133340498
field stddev 0.73394179213423
field sum 5477.3760679062
field sqrsum 173512.58537736
field min 25.682529819284
field max 33.000250186521
attr interpolationmode  none
attr title  "Latency time of file print, stats"
attr unit  s
statistic UCACnet.owner[449] 	latency:stats
field count 173
field mean 31.719022523664
field stddev 0.56755885161962
field sum 5487.3908965938
field sqrsum 174110.08060981
field min 30.060600330686
field max 33.525430999912
attr interpolationmode  none
attr title  "Latency time of file print, stats"
attr unit  s
statistic UCACnet.owner[450] 	latency:stats
field count 170
field mean 31.678223599717
field stddev 0.60981803173428
field sum 5385.2980119518
field sqrsum 170659.5219611
field min 30.202111801658
field max 33.179938390831
attr interpolationmode  none
attr title  "Latency time of file print, stats"
attr unit  s
statistic UCACnet.owner[451] 	latency:stats
field count 170
field mean 31.747114411216
field stddev 0.57179161343724
field sum 5397.0094499066
field sqrsum 171394.73029931
field min 29.918222729913
field max 33.153499994706
attr interpolationmode  none
attr title  "Latency time of file print, stats"
attr unit  s
statistic UCACnet.owner[452] 	latency:stats
field count 166
field mean 31.798860380465
field stddev 0.60330390294763
field sum 5278.6108231571
field sqrsum 167913.86454227
field min 30.153076438096
field max 33.478874672386
attr interpolationmode  none
attr title  "Latency time of file print, stats"
attr unit  s
statistic UCACnet.owner[453] 	latency:stats
field count 174
field mean 31.621747777365
field stddev 0.60182702548674
field sum 5502.1841132616
field sqrsum 174051.33812215
field min 30.105700304169
field max 33.351161938303
attr interpolationmode  none
attr title  "Latency time of file print, stats"
attr unit  s
statistic UCACnet.owner[454] 	latency:stats
field count 175
field mean 31.674783520425
field stddev 0.72043089816998
field sum 5543.0871160745
field sqrsum 175666.39403467
field min 26.958822569923
field max 33.155436577748
attr interpolationmode  none
attr title  "Latency time of file print, stats"
attr unit  s
statistic UCACnet.owner[455] 	latency:stats
field count 172
field mean 31.670850145779
field stddev 0.58225419886987
field sum 5447.3862250741
field sqrsum 172581.32523231
field min 30.135349894298
field max 32.979229978509
attr interpolationmode  none
attr title  "Latency time of file print, stats"
attr unit  s
statistic UCACnet.owner[456] 	latency:stats
field count 172
field mean 31.708469096058
field stddev 0.57496956396148
field sum 5453.8566845219
field sqrsum 172989.9770254
field min 30.042413079695
field max 33.526871032742
attr interpolationmode  none
attr title  "Latency time of file print, stats"
attr unit  s
statistic UCACnet.owner[457] 	latency:stats
field count 170
field mean 31.65916145023
field stddev 0.67546984998445
field sum 5382.057446539
field sqrsum 170468.53349297
field min 27.441606212876
field max 33.023832965795
attr interpolationmode  none
attr title  "Latency time of file print, stats"
attr unit  s
statistic UCACnet.owner[458] 	latency:stats
field count 171
field mean 31.748299080849
field stddev 0.58067384456135
field sum 5428.9591428252
field sqrsum 172417.53952346
field min 30.199531365503
field max 33.366927576984
attr interpolationmode  none
attr title  "Latency time of file print, stats"
attr unit  s
statistic UCACnet.owner[459] 	latency:stats
field count 173
field mean 31.720272028853
field stddev 0.62946138641493
field sum 5487.6070609916
field sqrsum 174136.53888367
field min 29.670167588554
field max 33.244092299014
attr interpolationmode  none
attr title  "Latency time of file print, stats"
attr unit  s
statistic UCACnet.owner[460] 	latency:stats
field count 171
field mean 31.675497898653
field stddev 0.64771577981869
field sum 5416.5101406697
field sqrsum 171641.97665316
field min 28.144492921774
field max 33.422693017487
attr interpolationmode  none
attr title  "Latency time of file print, stats"
attr unit  s
statistic UCACnet.owner[461] 	latency:stats
field count 178
field mean 31.654828616986
field stddev 0.63839251179199
field sum 5634.5594938235
field sqrsum 178433.15057403
field min 29.673713991426
field max 33.250731147312
attr interpolationmode  none
attr title  "Latency time of file print, stats"
attr unit  s
statistic UCACnet.owner[462] 	latency:stats
field count 175
field mean 31.68601106954
field stddev 0.70071406841054
field sum 5545.0519371694
field sqrsum 175786.01109811
field min 26.856772312278
field max 33.428427258089
attr interpolationmode  none
attr title  "Latency time of file print, stats"
attr unit  s
statistic UCACnet.owner[463] 	latency:stats
field count 174
field mean 31.677303662969
field stddev 0.61721701576853
field sum 5511.8508373565
field sqrsum 174666.47825404
field min 30.059446740159
field max 33.193960762098
attr interpolationmode  none
attr title  "Latency time of file print, stats"
attr unit  s
statistic UCACnet.owner[464] 	latency:stats
field count 177
field mean 31.682517467072
field stddev 0.56353922645793
field sum 5607.8055916717
field sqrsum 177725.292067
field min 30.45094761205
field max 33.068390491912
attr interpolationmode  none
attr title  "Latency time of file print, stats"
attr unit  s
statistic UCACnet.owner[465] 	latency:stats
field count 175
field mean 31.688995002988
field stddev 0.62298514051787
field sum 5545.5741255228
field sqrsum 175801.20197683
field min 29.878371588016
field max 33.422889646532
attr interpolationmode  none
attr title  "Latency time of file print, stats"
attr unit  s
statistic UCACnet.owner[466] 	latency:stats
field count 173
field mean 31.613272165521
field stddev 1.4857387685249
field sum 5469.0960846352
field sqrsum 173275.69920935
field min 13.756030054709
field max 32.842636167905
attr interpolationmode  none
attr title  "Latency time of file print, stats"
attr unit  s
statistic UCACnet.owner[467] 	latency:stats
field count 174
field mean 31.724322626144
field stddev 0.61347854134833
field sum 5520.0321369491
field sqrsum 175184.38999354
field min 30.025080414977
field max 33.430499727154
attr interpolationmode  none
attr title  "Latency time of file print, stats"
attr unit  s
statistic UCACnet.owner[468] 	latency:stats
field count 176
field mean 31.686327830771
field stddev 0.72410781201023
field sum 5576.7936982156
field sqrsum 176799.87148783
field min 26.674757322793
field max 32.986342430627
attr interpolationmode  none
attr title  "Latency time of file print, stats"
attr unit  s
statistic UCACnet.owner[469] 	latency:stats
field count 170
field mean 31.678328672806
field stddev 0.81007872018792
field sum 5385.3158743771
field sqrsum 170708.70872846
field min 24.375261094313
field max 33.231986121014
attr interpolationmode  none
attr title  "Latency time of file print, stats"
attr unit  s
statistic UCACnet.owner[470] 	latency:stats
field count 178
field mean 31.698470287454
field stddev 0.60908455643069
field sum 5642.3277111668
field sqrsum 178918.82147195
field min 30.159765488798
field max 33.327553942669
attr interpolationmode  none
attr title  "Latency time of file print, stats"
attr unit  s
statistic UCACnet.owner[471] 	latency:stats
field count 170
field mean 31.719133416125
field stddev 0.6165015115651
field sum 5392.2526807413
field sqrsum 171101.81471912
field min 29.866683488672
field max 33.322283825037
attr interpolationmode  none
attr title  "Latency time of file print, stats"
attr unit  s
statistic UCACnet.owner[472] 	latency:stats
field count 178
field mean 31.726854953828
field stddev 0.63679805410338
field sum 5647.3801817814
field sqrsum 179245.38747833
field min 30.049361810082
field max 33.182088115506
attr interpolationmode  none
attr title  "Latency time of file print, stats"
attr unit  s
statistic UCACnet.owner[473] 	latency:stats
field count 171
field mean 31.722863960702
field stddev 0.57888257524484
field sum 5424.60973728
field sqrsum 172141.12459174
field min 30.30519390601
field max 33.487951140826
attr interpolationmode  none
attr title  "Latency time of file print, stats"
attr unit  s
statistic UCACnet.owner[474] 	latency:stats
field count 175
field mean 31.677325989493
field stddev 0.61804776261645
field sum 5543.5320481612
field sqrsum 175670.73687122
field min 29.6028390599
field max 33.163063160537
attr interpolationmode  none
attr title  "Latency time of file print, stats"
attr unit  s
statistic UCACnet.owner[475] 	latency:stats
field count 166
field mean 31.671606521186
field stddev 0.73938400802509
field sum 5257.486682517
field sqrsum 166603.25313642
field min 26.890811058929
field max 33.240462091714
attr interpolationmode  none
attr title  "Latency time of file print, stats"
attr unit  s
statistic UCACnet.owner[476] 	latency:stats
field count 181
field mean 31.685422212725
field stddev 0.63303129872696
field sum 5735.0614205032
field sqrsum 181789.97367709
field min 28.763847326878
field max 33.128832736079
attr interpolationmode  none
attr title  "Latency time of file print, stats"
attr unit  s
statistic UCACnet.owner[477] 	latency:stats
field count 173
field mean 31.663044494682
field stddev 0.74944788438328
field sum 5477.70669758
field sqrsum 173537.4785009
field min 25.816427570591
field max 33.4246881774
attr interpolationmode  none
attr title  "Latency time of file print, stats"
attr unit  s
statistic UCACnet.owner[478] 	latency:stats
field count 175
field mean 31.731330661941
field stddev 0.62822957509827
field sum 5552.9828658398
field sqrsum 176272.20847349
field min 30.190773567818
field max 33.398150946311
attr interpolationmode  none
attr title  "Latency time of file print, stats"
attr unit  s
statistic UCACnet.owner[479] 	latency:stats
field count 179
field mean 31.73888215329
field stddev 0.59449932062756
field sum 5681.259905439
field sqrsum 180379.74906166
field min 30.008888012858
field max 33.021433291184
attr interpolationmode  none
attr title  "Latency time of file print, stats"
attr unit  s
statistic UCACnet.owner[480] 	latency:stats
field count 171
field mean 31.689804751266
field stddev 0.60964023845098
field sum 5418.9566124665
field sqrsum 171788.85941211
field min 29.937400636869
field max 33.144319921432
attr interpolationmode  none
attr title  "Latency time of file print, stats"
attr unit  s
statistic UCACnet.owner[481] 	latency:stats
field count 178
field mean 31.664543986149
field stddev 0.61711510439651
field sum 5636.2888295346
field sqrsum 178537.92265766
field min 30.0086232188
field max 33.275270661081
attr interpolationmode  none
attr title  "Latency time of file print, stats"
attr unit  s
statistic UCACnet.owner[482] 	latency:stats
field count 176
field mean 31.630559158282
field stddev 0.93552088154821
field sum 5566.9784118576
field sqrsum 176239.79987011
field min 22.029681607406
field max 33.100164404524
attr interpolationmode  none
attr title  "Latency time of file print, stats"
attr unit  s
statistic UCACnet.owner[483] 	latency:stats
field count 177
field mean 31.694433447932
field stddev 0.61686689846584
field sum 5609.914720284
field sqrsum 177870.04111021
field min 30.281984496704
field max 33.423402511161
attr interpolationmode  none
attr title  "Latency time of file print, stats"
attr unit  s
statistic UCACnet.owner[484] 	latency:stats
field count 174
field mean 31.725258532988
field stddev 0.62134583005226
field sum 5520.19498474
field sqrsum 175196.40326419
field min 29.693709021797
field max 32.849584577015
attr interpolationmode  none
attr title  "Latency time of file print, stats"
attr unit  s
statistic UCACnet.owner[485] 	latency:stats
field count 173
field mean 31.675521362229
field stddev 0.62804272161694
field sum 5479.8651956656
field sqrsum 173645.43034499
field min 28.730016371776
field max 33.268443255908
attr interpolationmode  none
attr title  "Latency time of file print, stats"
attr unit  s
statistic UCACnet.owner[486] 	latency:stats
field count 178
field mean 31.720573417408
field stddev 0.87211834402605
field sum 5646.2620682986
field sqrsum 179237.29497325
field min 23.017587158688
field max 33.043701892142
attr interpolationmode  none
attr title  "Latency time of file print, stats"
attr unit  s
statistic UCACnet.owner[487] 	latency:stats
field count 174
field mean 31.59877445744
field stddev 0.79745235766411
field sum 5498.1867555945
field sqrsum 173845.97915037
field min 25.365393098219
field max 33.222293098969
attr interpolationmode  none
attr title  "Latency time of file print, stats"
attr unit  s
statistic UCACnet.owner[488] 	latency:stats
field count 173
field mean 31.681925904757
field stddev 0.62655318885517
field sum 5480.973181523
field sqrsum 173715.30807351
field min 29.705727160628
field max 33.501608572323
attr interpolationmode  none
attr title  "Latency time of file print, stats"
attr unit  s
statistic UCACnet.owner[489] 	latency:stats
field count 175
field mean 31.666275966573
field stddev 0.63816955606331
field sum 5541.5982941502
field sqrsum 175552.64418497
field min 30.016474800314
field max 33.528014054827
attr interpolationmode  none
attr title  "Latency time of file print, stats"
attr unit  s
statistic UCACnet.owner[490] 	latency:stats
field count 176
field mean 31.681422725184
field stddev 0.57554543532506
field sum 5575.9303996324
field sqrsum 176711.37727288
field min 30.144374676443
field max 33.093840579173
attr interpolationmode  none
attr title  "Latency time of file print, stats"
attr unit  s
statistic UCACnet.owner[491] 	latency:stats
field count 171
field mean 31.722217245753
field stddev 0.56135535545928
field sum 5424.4991490238
field sqrsum 172130.7108267
field min 30.046696181441
field max 33.386495785836
attr interpolationmode  none
attr title  "Latency time of file print, stats"
attr unit  s
statistic UCACnet.owner[492] 	latency:stats
field count 170
field mean 31.709432637288
field stddev 0.59860494329534
field sum 5390.6035483389
field sqrsum 170993.53750178
field min 29.982187204621
field max 33.146048709992
attr interpolationmode  none
attr title  "Latency time of file print, stats"
attr unit  s
statistic UCACnet.owner[493] 	latency:stats
field count 172
field mean 31.725752493573
field stddev 0.59048812692265
field sum 5456.8294288946
field sqrsum 173181.64349575
field min 29.7792113176
field max 32.986755487334
attr interpolationmode  none
attr title  "Latency time of file print, stats"
attr unit  s
statistic UCACnet.owner[494] 	latency:stats
field count 179
field mean 31.625324795954
field stddev 0.78211825291751
field sum 5660.9331384757
field sqrsum 179137.73334763
field min 25.60341986966
field max 33.256551079446
attr interpolationmode  none
attr title  "Latency time of file print, stats"
attr unit  s
statistic UCACnet.owner[495] 	latency:stats
field count 175
field mean 31.725342002617
field stddev 0.7360135481784
field sum 5551.934850458
field sqrsum 176231.29048113
field min 26.537564254571
field max 33.348372401229
attr interpolationmode  none
attr title  "Latency time of file print, stats"
attr unit  s
statistic UCACnet.owner[496] 	latency:stats
field count 174
field mean 31.626761198645
field stddev 0.8648948991144
field sum 5503.0564485643
field sqrsum 174173.26363267
field min 23.775249802796
field max 33.431057264024
attr interpolationmode  none
attr title  "Latency time of file print, stats"
attr unit  s
statistic UCACnet.owner[497] 	latency:stats
field count 169
field mean 31.668500231603
field stddev 0.82441466620451
field sum 5351.9765391408
field sqrsum 169603.25307234
field min 24.935264510858
field max 33.417539242713
attr interpolationmode  none
attr title  "Latency time of file print, stats"
attr unit  s
statistic UCACnet.owner[498] 	latency:stats
field count 175
field mean 31.680793414066
field stddev 0.61667486278507
field sum 5544.1388474616
field sqrsum 175708.88757756
field min 29.648881101957
field max 33.061924144929
attr interpolationmode  none
attr title  "Latency time of file print, stats"
attr unit  s
statistic UCACnet.owner[499] 	latency:stats
field count 178
field mean 31.598117354177
field stddev 0.91245661865189
field sum 5624.4648890435
field sqrsum 177869.86776177
field min 22.460601273914
field max 33.285800377341
attr interpolationmode  none
attr title  "Latency time of file print, stats"
attr unit  s
