version 2
run Owner-400-0-20110905-21:51:11-5341
attr configname Owner-400
attr datetime 20110905-21:51:11
attr experiment Owner-400
attr inifile crypto.ini
attr iterationvars ""
attr iterationvars2 $repetition=0
attr measurement ""
attr network UCACnet
attr processid 5341
attr repetition 0
attr replication #0
attr resultdir results
attr runnumber 0
attr seedset 0

statistic UCACnet.owner[0] 	latency:stats
field count 198
field mean 23.533101151431
field stddev 0.71013434198644
field sum 4659.5540279833
field sqrsum 109753.10154547
field min 21.606511515425
field max 25.647879411527
attr interpolationmode  none
attr title  "Latency time of file print, stats"
attr unit  s
statistic UCACnet.owner[1] 	latency:stats
field count 203
field mean 23.572772809954
field stddev 0.61750139793695
field sum 4785.2728804206
field sqrsum 112879.17465503
field min 21.853014373266
field max 24.932795561755
attr interpolationmode  none
attr title  "Latency time of file print, stats"
attr unit  s
statistic UCACnet.owner[2] 	latency:stats
field count 203
field mean 23.525451254869
field stddev 0.67490148342482
field sum 4775.6666047385
field sqrsum 112441.72130577
field min 20.949452539246
field max 24.998313766503
attr interpolationmode  none
attr title  "Latency time of file print, stats"
attr unit  s
statistic UCACnet.owner[3] 	latency:stats
field count 204
field mean 23.500244471738
field stddev 0.67456347463018
field sum 4794.0498722345
field sqrsum 112753.71629112
field min 21.720162747242
field max 24.96725809175
attr interpolationmode  none
attr title  "Latency time of file print, stats"
attr unit  s
statistic UCACnet.owner[4] 	latency:stats
field count 206
field mean 23.545423338847
field stddev 0.6821256969337
field sum 4850.3572078024
field sqrsum 114299.09937295
field min 21.023163028292
field max 25.415596140066
attr interpolationmode  none
attr title  "Latency time of file print, stats"
attr unit  s
statistic UCACnet.owner[5] 	latency:stats
field count 198
field mean 23.574488066397
field stddev 0.63827691111006
field sum 4667.7486371466
field sqrsum 110120.04183416
field min 22.014095760705
field max 25.550084220866
attr interpolationmode  none
attr title  "Latency time of file print, stats"
attr unit  s
statistic UCACnet.owner[6] 	latency:stats
field count 197
field mean 23.548847193725
field stddev 0.66431131575184
field sum 4639.1228971637
field sqrsum 109332.49288497
field min 21.38275730167
field max 25.539936679552
attr interpolationmode  none
attr title  "Latency time of file print, stats"
attr unit  s
statistic UCACnet.owner[7] 	latency:stats
field count 196
field mean 23.588309503777
field stddev 0.65913748697624
field sum 4623.3086627403
field sqrsum 109140.75580242
field min 21.411325518352
field max 25.563267427371
attr interpolationmode  none
attr title  "Latency time of file print, stats"
attr unit  s
statistic UCACnet.owner[8] 	latency:stats
field count 206
field mean 23.553919382745
field stddev 0.6775831554892
field sum 4852.1073928455
field sqrsum 114380.26574869
field min 21.714037517592
field max 25.437635069302
attr interpolationmode  none
attr title  "Latency time of file print, stats"
attr unit  s
statistic UCACnet.owner[9] 	latency:stats
field count 202
field mean 23.578257953438
field stddev 0.67014655025937
field sum 4762.8081065944
field sqrsum 112388.98649617
field min 21.798071549757
field max 25.661822349739
attr interpolationmode  none
attr title  "Latency time of file print, stats"
attr unit  s
statistic UCACnet.owner[10] 	latency:stats
field count 205
field mean 23.557629733562
field stddev 0.69638034031018
field sum 4829.3140953802
field sqrsum 113866.12222402
field min 21.561801271408
field max 25.04979098452
attr interpolationmode  none
attr title  "Latency time of file print, stats"
attr unit  s
statistic UCACnet.owner[11] 	latency:stats
field count 209
field mean 23.529475931382
field stddev 0.64189578575662
field sum 4917.6604696588
field sqrsum 115795.6759411
field min 21.856154765569
field max 24.945890524612
attr interpolationmode  none
attr title  "Latency time of file print, stats"
attr unit  s
statistic UCACnet.owner[12] 	latency:stats
field count 203
field mean 23.570635918945
field stddev 0.66362935885324
field sum 4784.8390915459
field sqrsum 112870.6617506
field min 21.248669550998
field max 25.5369538731
attr interpolationmode  none
attr title  "Latency time of file print, stats"
attr unit  s
statistic UCACnet.owner[13] 	latency:stats
field count 204
field mean 23.507041732999
field stddev 0.68528026905276
field sum 4795.4365135318
field sqrsum 112821.85688811
field min 21.276094300635
field max 25.596778385558
attr interpolationmode  none
attr title  "Latency time of file print, stats"
attr unit  s
statistic UCACnet.owner[14] 	latency:stats
field count 192
field mean 23.504136128563
field stddev 0.67664298661102
field sum 4512.7941366842
field sqrsum 106156.77624349
field min 21.387369399238
field max 24.869036526793
attr interpolationmode  none
attr title  "Latency time of file print, stats"
attr unit  s
statistic UCACnet.owner[15] 	latency:stats
field count 207
field mean 23.510723400377
field stddev 0.97234358013093
field sum 4866.7197438779
field sqrsum 114614.86488526
field min 13.12183900108
field max 25.091332932123
attr interpolationmode  none
attr title  "Latency time of file print, stats"
attr unit  s
statistic UCACnet.owner[16] 	latency:stats
field count 204
field mean 23.541007887706
field stddev 0.66684053928811
field sum 4802.365609092
field sqrsum 113142.79597316
field min 21.95963674535
field max 25.449038377665
attr interpolationmode  none
attr title  "Latency time of file print, stats"
attr unit  s
statistic UCACnet.owner[17] 	latency:stats
field count 196
field mean 23.494046012929
field stddev 0.70729941882258
field sum 4604.8330185341
field sqrsum 108283.71195053
field min 20.726124283593
field max 25.298164404524
attr interpolationmode  none
attr title  "Latency time of file print, stats"
attr unit  s
statistic UCACnet.owner[18] 	latency:stats
field count 208
field mean 23.53084401178
field stddev 0.66335555428438
field sum 4894.4155544502
field sqrsum 115260.81734302
field min 21.684325357783
field max 25.163594066929
attr interpolationmode  none
attr title  "Latency time of file print, stats"
attr unit  s
statistic UCACnet.owner[19] 	latency:stats
field count 206
field mean 23.569118032659
field stddev 0.65490072654722
field sum 4855.2383147278
field sqrsum 114521.60838365
field min 21.642241437899
field max 25.219154367147
attr interpolationmode  none
attr title  "Latency time of file print, stats"
attr unit  s
statistic UCACnet.owner[20] 	latency:stats
field count 200
field mean 23.539746348043
field stddev 0.6752206455686
field sum 4707.9492696086
field sqrsum 110914.66028716
field min 21.687256883041
field max 25.666157947852
attr interpolationmode  none
attr title  "Latency time of file print, stats"
attr unit  s
statistic UCACnet.owner[21] 	latency:stats
field count 200
field mean 23.510591508256
field stddev 0.67381523034474
field sum 4702.1183016512
field sqrsum 110639.93397958
field min 21.954837767204
field max 25.003250326969
attr interpolationmode  none
attr title  "Latency time of file print, stats"
attr unit  s
statistic UCACnet.owner[22] 	latency:stats
field count 197
field mean 23.565784996941
field stddev 0.69432174512001
field sum 4642.4596443974
field sqrsum 109497.69404325
field min 21.888229682498
field max 25.583652677754
attr interpolationmode  none
attr title  "Latency time of file print, stats"
attr unit  s
statistic UCACnet.owner[23] 	latency:stats
field count 203
field mean 23.50810884345
field stddev 0.65625443364269
field sum 4772.1460952203
field sqrsum 112271.12513938
field min 21.530398340214
field max 25.102716277846
attr interpolationmode  none
attr title  "Latency time of file print, stats"
attr unit  s
statistic UCACnet.owner[24] 	latency:stats
field count 203
field mean 23.531424353615
field stddev 0.70007822019639
field sum 4776.8791437839
field sqrsum 112505.77234022
field min 21.05898050574
field max 25.595121596607
attr interpolationmode  none
attr title  "Latency time of file print, stats"
attr unit  s
statistic UCACnet.owner[25] 	latency:stats
field count 198
field mean 23.543952953834
field stddev 0.65028058831119
field sum 4661.7026848591
field sqrsum 109838.21307126
field min 22.20763927691
field max 25.336048709992
attr interpolationmode  none
attr title  "Latency time of file print, stats"
attr unit  s
statistic UCACnet.owner[26] 	latency:stats
field count 200
field mean 23.484738755569
field stddev 0.68986043738578
field sum 4696.9477511138
field sqrsum 110401.29646065
field min 21.220093677439
field max 25.481713072313
attr interpolationmode  none
attr title  "Latency time of file print, stats"
attr unit  s
statistic UCACnet.owner[27] 	latency:stats
field count 200
field mean 23.505112620869
field stddev 0.66340953961982
field sum 4701.0225241737
field sqrsum 110585.64619518
field min 20.94979452874
field max 25.212380028162
attr interpolationmode  none
attr title  "Latency time of file print, stats"
attr unit  s
statistic UCACnet.owner[28] 	latency:stats
field count 206
field mean 23.453892245902
field stddev 0.94962950962494
field sum 4831.5018026559
field sqrsum 113502.39088751
field min 13.72883213736
field max 25.064437121265
attr interpolationmode  none
attr title  "Latency time of file print, stats"
attr unit  s
statistic UCACnet.owner[29] 	latency:stats
field count 204
field mean 23.506052608961
field stddev 0.69083443455423
field sum 4795.234732228
field sqrsum 112813.92208791
field min 21.228205999507
field max 25.447444981495
attr interpolationmode  none
attr title  "Latency time of file print, stats"
attr unit  s
statistic UCACnet.owner[30] 	latency:stats
field count 197
field mean 23.463134835152
field stddev 0.90115765817712
field sum 4622.2375625249
field sqrsum 108611.3518541
field min 14.660075430768
field max 25.133126999789
attr interpolationmode  none
attr title  "Latency time of file print, stats"
attr unit  s
statistic UCACnet.owner[31] 	latency:stats
field count 207
field mean 23.537922366739
field stddev 0.66216908262185
field sum 4872.3499299149
field sqrsum 114775.31878008
field min 21.47679547671
field max 24.931144709452
attr interpolationmode  none
attr title  "Latency time of file print, stats"
attr unit  s
statistic UCACnet.owner[32] 	latency:stats
field count 206
field mean 23.481756655664
field stddev 1.1210536544453
field sum 4837.2418710669
field sqrsum 113844.57256669
field min 10.60142980802
field max 25.386993329807
attr interpolationmode  none
attr title  "Latency time of file print, stats"
attr unit  s
statistic UCACnet.owner[33] 	latency:stats
field count 207
field mean 23.539984372455
field stddev 0.65297033355597
field sum 4872.7767650982
field sqrsum 114792.92117371
field min 21.798702902232
field max 25.051976268151
attr interpolationmode  none
attr title  "Latency time of file print, stats"
attr unit  s
statistic UCACnet.owner[34] 	latency:stats
field count 199
field mean 23.551532825623
field stddev 0.67689582571445
field sum 4686.7550322989
field sqrsum 110470.9862047
field min 21.844421429941
field max 25.438697208664
attr interpolationmode  none
attr title  "Latency time of file print, stats"
attr unit  s
statistic UCACnet.owner[35] 	latency:stats
field count 201
field mean 23.542352316317
field stddev 0.6731868516466
field sum 4732.0128155797
field sqrsum 111493.34897715
field min 20.941541355146
field max 25.479526444834
attr interpolationmode  none
attr title  "Latency time of file print, stats"
attr unit  s
statistic UCACnet.owner[36] 	latency:stats
field count 203
field mean 23.57470543943
field stddev 0.64960624509156
field sum 4785.6652042042
field sqrsum 112905.88915212
field min 21.875497703168
field max 25.055942457839
attr interpolationmode  none
attr title  "Latency time of file print, stats"
attr unit  s
statistic UCACnet.owner[37] 	latency:stats
field count 203
field mean 23.463401759288
field stddev 0.81240354272797
field sum 4763.0705571354
field sqrsum 111891.15799218
field min 16.843377155361
field max 25.161421124687
attr interpolationmode  none
attr title  "Latency time of file print, stats"
attr unit  s
statistic UCACnet.owner[38] 	latency:stats
field count 200
field mean 23.528817854821
field stddev 0.64157271321456
field sum 4705.7635709642
field sqrsum 110802.96542279
field min 21.642327197582
field max 25.04509542998
attr interpolationmode  none
attr title  "Latency time of file print, stats"
attr unit  s
statistic UCACnet.owner[39] 	latency:stats
field count 213
field mean 23.488985018724
field stddev 0.66909254780184
field sum 5003.1538089882
field sqrsum 117613.91405125
field min 21.385779695007
field max 25.490511318013
attr interpolationmode  none
attr title  "Latency time of file print, stats"
attr unit  s
statistic UCACnet.owner[40] 	latency:stats
field count 195
field mean 23.482429346649
field stddev 0.65981882452616
field sum 4579.0737225966
field sqrsum 107612.23517492
field min 21.930735359132
field max 25.108088115506
attr interpolationmode  none
attr title  "Latency time of file print, stats"
attr unit  s
statistic UCACnet.owner[41] 	latency:stats
field count 198
field mean 23.569812785343
field stddev 0.70905719718024
field sum 4666.8229314979
field sqrsum 110095.1869332
field min 21.652664193683
field max 25.589689677077
attr interpolationmode  none
attr title  "Latency time of file print, stats"
attr unit  s
statistic UCACnet.owner[42] 	latency:stats
field count 198
field mean 23.529414189276
field stddev 0.67928277127568
field sum 4658.8240094767
field sqrsum 109710.30049534
field min 21.659303528295
field max 25.5466881774
attr interpolationmode  none
attr title  "Latency time of file print, stats"
attr unit  s
statistic UCACnet.owner[43] 	latency:stats
field count 204
field mean 23.553073002947
field stddev 0.67473712708668
field sum 4804.8268926012
field sqrsum 113260.85841666
field min 21.615865853323
field max 25.369614203081
attr interpolationmode  none
attr title  "Latency time of file print, stats"
attr unit  s
statistic UCACnet.owner[44] 	latency:stats
field count 204
field mean 23.486009151778
field stddev 0.64289994237707
field sum 4791.1458669628
field sqrsum 112608.79970718
field min 21.991053438246
field max 25.596751423796
attr interpolationmode  none
attr title  "Latency time of file print, stats"
attr unit  s
statistic UCACnet.owner[45] 	latency:stats
field count 208
field mean 23.542843060043
field stddev 0.67835514152048
field sum 4896.911356489
field sqrsum 115382.46984426
field min 21.157600367512
field max 25.604321956201
attr interpolationmode  none
attr title  "Latency time of file print, stats"
attr unit  s
statistic UCACnet.owner[46] 	latency:stats
field count 202
field mean 23.518167184466
field stddev 0.68583534907985
field sum 4750.6697712621
field sqrsum 111821.59031407
field min 21.58566856519
field max 25.073435071168
attr interpolationmode  none
attr title  "Latency time of file print, stats"
attr unit  s
statistic UCACnet.owner[47] 	latency:stats
field count 196
field mean 23.525232736983
field stddev 0.6667343040988
field sum 4610.9456164488
field sqrsum 108560.25301782
field min 21.86926986978
field max 25.389784060896
attr interpolationmode  none
attr title  "Latency time of file print, stats"
attr unit  s
statistic UCACnet.owner[48] 	latency:stats
field count 210
field mean 23.470892895345
field stddev 0.83094931303104
field sum 4928.8875080224
field sqrsum 115829.70043701
field min 16.02694159763
field max 25.600410275769
attr interpolationmode  none
attr title  "Latency time of file print, stats"
attr unit  s
statistic UCACnet.owner[49] 	latency:stats
field count 201
field mean 23.549006108887
field stddev 0.65297990021201
field sum 4733.3502278863
field sqrsum 111550.96998201
field min 21.870753317158
field max 25.367080281542
attr interpolationmode  none
attr title  "Latency time of file print, stats"
attr unit  s
statistic UCACnet.owner[50] 	latency:stats
field count 198
field mean 23.516173637628
field stddev 0.6621469414055
field sum 4656.2023802503
field sqrsum 109582.43606459
field min 21.578764866737
field max 25.148634844661
attr interpolationmode  none
attr title  "Latency time of file print, stats"
attr unit  s
statistic UCACnet.owner[51] 	latency:stats
field count 202
field mean 23.571906790447
field stddev 0.66952987989586
field sum 4761.5251716703
field sqrsum 112328.32984925
field min 21.625959548987
field max 25.602207620778
attr interpolationmode  none
attr title  "Latency time of file print, stats"
attr unit  s
statistic UCACnet.owner[52] 	latency:stats
field count 199
field mean 23.506787707741
field stddev 0.80610529898707
field sum 4677.8507538405
field sqrsum 110089.90613813
field min 16.94438888701
field max 25.351070741181
attr interpolationmode  none
attr title  "Latency time of file print, stats"
attr unit  s
statistic UCACnet.owner[53] 	latency:stats
field count 205
field mean 23.55916881804
field stddev 0.67444769454048
field sum 4829.6296076982
field sqrsum 113874.85471367
field min 21.710924424341
field max 25.610538676082
attr interpolationmode  none
attr title  "Latency time of file print, stats"
attr unit  s
statistic UCACnet.owner[54] 	latency:stats
field count 205
field mean 23.517937893859
field stddev 0.67693508596938
field sum 4821.1772682412
field sqrsum 113477.62875635
field min 21.329382747861
field max 25.559331448306
attr interpolationmode  none
attr title  "Latency time of file print, stats"
attr unit  s
statistic UCACnet.owner[55] 	latency:stats
field count 197
field mean 23.547467108402
field stddev 0.64657293888055
field sum 4638.8510203552
field sqrsum 109315.13090939
field min 21.775098009706
field max 25.475676719035
attr interpolationmode  none
attr title  "Latency time of file print, stats"
attr unit  s
statistic UCACnet.owner[56] 	latency:stats
field count 201
field mean 23.537382744192
field stddev 0.67295913828448
field sum 4731.0139315826
field sqrsum 111446.26047612
field min 21.798010037365
field max 25.260505408124
attr interpolationmode  none
attr title  "Latency time of file print, stats"
attr unit  s
statistic UCACnet.owner[57] 	latency:stats
field count 199
field mean 23.447309136867
field stddev 0.85333870011261
field sum 4666.0145182366
field sqrsum 109549.66585975
field min 15.604224085684
field max 25.109788013178
attr interpolationmode  none
attr title  "Latency time of file print, stats"
attr unit  s
statistic UCACnet.owner[58] 	latency:stats
field count 202
field mean 23.55315444805
field stddev 0.66817586541431
field sum 4757.7371985061
field sqrsum 112149.45731606
field min 21.950410274691
field max 25.533411606283
attr interpolationmode  none
attr title  "Latency time of file print, stats"
attr unit  s
statistic UCACnet.owner[59] 	latency:stats
field count 205
field mean 23.458556961105
field stddev 0.66085207951012
field sum 4809.0041770265
field sqrsum 112901.39040905
field min 21.6288390599
field max 24.89245787981
attr interpolationmode  none
attr title  "Latency time of file print, stats"
attr unit  s
statistic UCACnet.owner[60] 	latency:stats
field count 203
field mean 23.49029774081
field stddev 0.69642639249964
field sum 4768.5304413845
field sqrsum 112112.17181771
field min 20.426882170485
field max 25.342653377958
attr interpolationmode  none
attr title  "Latency time of file print, stats"
attr unit  s
statistic UCACnet.owner[61] 	latency:stats
field count 201
field mean 23.485460962962
field stddev 0.75589323234704
field sum 4720.5776535554
field sqrsum 110979.21712095
field min 18.265652871706
field max 25.016246803303
attr interpolationmode  none
attr title  "Latency time of file print, stats"
attr unit  s
statistic UCACnet.owner[62] 	latency:stats
field count 208
field mean 23.497799337278
field stddev 0.64562858181177
field sum 4887.5422621539
field sqrsum 114932.77243555
field min 21.383560860737
field max 25.467804368514
attr interpolationmode  none
attr title  "Latency time of file print, stats"
attr unit  s
statistic UCACnet.owner[63] 	latency:stats
field count 199
field mean 23.576929193714
field stddev 0.72310006720901
field sum 4691.8089095491
field sqrsum 110721.9754449
field min 21.397342350777
field max 25.108965127239
attr interpolationmode  none
attr title  "Latency time of file print, stats"
attr unit  s
statistic UCACnet.owner[64] 	latency:stats
field count 207
field mean 23.537891527865
field stddev 0.69413475559704
field sum 4872.3435462681
field sqrsum 114783.94942869
field min 20.923207901348
field max 25.601146732659
attr interpolationmode  none
attr title  "Latency time of file print, stats"
attr unit  s
statistic UCACnet.owner[65] 	latency:stats
field count 201
field mean 23.562784517038
field stddev 0.74834640309297
field sum 4736.1196879247
field sqrsum 111708.17212128
field min 19.221200784645
field max 25.661409341661
attr interpolationmode  none
attr title  "Latency time of file print, stats"
attr unit  s
statistic UCACnet.owner[66] 	latency:stats
field count 207
field mean 23.571251940634
field stddev 0.66146599457114
field sum 4879.2491517111
field sqrsum 115100.14371207
field min 21.703349894298
field max 25.483698059119
attr interpolationmode  none
attr title  "Latency time of file print, stats"
attr unit  s
statistic UCACnet.owner[67] 	latency:stats
field count 201
field mean 23.525942042772
field stddev 0.81628251796572
field sum 4728.7143505971
field sqrsum 111380.7231788
field min 16.592905419088
field max 25.49423632379
attr interpolationmode  none
attr title  "Latency time of file print, stats"
attr unit  s
statistic UCACnet.owner[68] 	latency:stats
field count 204
field mean 23.435980868369
field stddev 1.1559196990821
field sum 4780.9400971473
field sqrsum 112317.25917076
field min 10.398
field max 25.35572052962
attr interpolationmode  none
attr title  "Latency time of file print, stats"
attr unit  s
statistic UCACnet.owner[69] 	latency:stats
field count 207
field mean 23.534406427995
field stddev 0.65207588069905
field sum 4871.6221305949
field sqrsum 114738.3269936
field min 21.727977585243
field max 25.484093122976
attr interpolationmode  none
attr title  "Latency time of file print, stats"
attr unit  s
statistic UCACnet.owner[70] 	latency:stats
field count 209
field mean 23.505799955855
field stddev 0.69532198792199
field sum 4912.7121907737
field sqrsum 115577.79231173
field min 21.530686600022
field max 25.501650186208
attr interpolationmode  none
attr title  "Latency time of file print, stats"
attr unit  s
statistic UCACnet.owner[71] 	latency:stats
field count 201
field mean 23.534611522699
field stddev 0.80272873499564
field sum 4730.4569160624
field sqrsum 111458.34052879
field min 17.188320797551
field max 25.506495785836
attr interpolationmode  none
attr title  "Latency time of file print, stats"
attr unit  s
statistic UCACnet.owner[72] 	latency:stats
field count 205
field mean 23.527384549726
field stddev 0.66277984979829
field sum 4823.1138326938
field sqrsum 113564.86640326
field min 21.595446740159
field max 25.605223903847
attr interpolationmode  none
attr title  "Latency time of file print, stats"
attr unit  s
statistic UCACnet.owner[73] 	latency:stats
field count 207
field mean 23.512632923348
field stddev 0.70258929307323
field sum 4867.115015133
field sqrsum 114540.37687977
field min 19.387266371262
field max 24.958629815344
attr interpolationmode  none
attr title  "Latency time of file print, stats"
attr unit  s
statistic UCACnet.owner[74] 	latency:stats
field count 205
field mean 23.514863243115
field stddev 0.63187203080098
field sum 4820.5469648386
field sqrsum 113435.95213691
field min 21.881483870965
field max 25.484340169663
attr interpolationmode  none
attr title  "Latency time of file print, stats"
attr unit  s
statistic UCACnet.owner[75] 	latency:stats
field count 199
field mean 23.517257832594
field stddev 0.71137549129095
field sum 4679.9343086862
field sqrsum 110159.42068472
field min 21.242732977013
field max 25.64574343813
attr interpolationmode  none
attr title  "Latency time of file print, stats"
attr unit  s
statistic UCACnet.owner[76] 	latency:stats
field count 194
field mean 23.539927574995
field stddev 0.6636545513477
field sum 4566.7459495491
field sqrsum 107585.87331695
field min 21.88303241391
field max 25.468889646532
attr interpolationmode  none
attr title  "Latency time of file print, stats"
attr unit  s
statistic UCACnet.owner[77] 	latency:stats
field count 204
field mean 23.515059592555
field stddev 0.62902283408632
field sum 4797.0721568813
field sqrsum 112883.75859319
field min 21.79268816885
field max 25.538278742456
attr interpolationmode  none
attr title  "Latency time of file print, stats"
attr unit  s
statistic UCACnet.owner[78] 	latency:stats
field count 202
field mean 23.546933164177
field stddev 0.65167544540188
field sum 4756.4804991638
field sqrsum 112085.88926864
field min 21.7326232188
field max 25.127053354022
attr interpolationmode  none
attr title  "Latency time of file print, stats"
attr unit  s
statistic UCACnet.owner[79] 	latency:stats
field count 206
field mean 23.51601681333
field stddev 0.6667364341072
field sum 4844.2994635459
field sqrsum 114009.75781542
field min 21.77493992075
field max 25.550372401229
attr interpolationmode  none
attr title  "Latency time of file print, stats"
attr unit  s
statistic UCACnet.owner[80] 	latency:stats
field count 199
field mean 23.551103676754
field stddev 0.67931906334654
field sum 4686.669631674
field sqrsum 110467.61432343
field min 21.682770598211
field max 25.55388756988
attr interpolationmode  none
attr title  "Latency time of file print, stats"
attr unit  s
statistic UCACnet.owner[81] 	latency:stats
field count 197
field mean 23.551817286256
field stddev 0.61357922812948
field sum 4639.7080053924
field sqrsum 109347.34518054
field min 21.866536923274
field max 25.544938425533
attr interpolationmode  none
attr title  "Latency time of file print, stats"
attr unit  s
statistic UCACnet.owner[82] 	latency:stats
field count 199
field mean 23.511307651963
field stddev 0.68063493960613
field sum 4678.7502227406
field sqrsum 110095.26216991
field min 21.914680585246
field max 25.128389488592
attr interpolationmode  none
attr title  "Latency time of file print, stats"
attr unit  s
statistic UCACnet.owner[83] 	latency:stats
field count 206
field mean 23.529670448424
field stddev 0.70015034547717
field sum 4847.1121123754
field sqrsum 114151.44378454
field min 21.919338440536
field max 25.504550374975
attr interpolationmode  none
attr title  "Latency time of file print, stats"
attr unit  s
statistic UCACnet.owner[84] 	latency:stats
field count 205
field mean 23.586599778726
field stddev 0.65808529129223
field sum 4835.2529546388
field sqrsum 114135.52382509
field min 21.738939073096
field max 25.336307181569
attr interpolationmode  none
attr title  "Latency time of file print, stats"
attr unit  s
statistic UCACnet.owner[85] 	latency:stats
field count 204
field mean 23.447063497962
field stddev 0.90739298638601
field sum 4783.2009535843
field sqrsum 112319.15897465
field min 15.272073434259
field max 25.625003334849
attr interpolationmode  none
attr title  "Latency time of file print, stats"
attr unit  s
statistic UCACnet.owner[86] 	latency:stats
field count 205
field mean 23.484628042717
field stddev 1.0335903736157
field sum 4814.3487487569
field sqrsum 113281.1246808
field min 13.306532787347
field max 25.625739394068
attr interpolationmode  none
attr title  "Latency time of file print, stats"
attr unit  s
statistic UCACnet.owner[87] 	latency:stats
field count 206
field mean 23.513559443426
field stddev 0.6885744999863
field sum 4843.7932453457
field sqrsum 113992.01804872
field min 21.244614194366
field max 25.046735447754
attr interpolationmode  none
attr title  "Latency time of file print, stats"
attr unit  s
statistic UCACnet.owner[88] 	latency:stats
field count 198
field mean 23.502314060492
field stddev 0.71486450181058
field sum 4653.4581839774
field sqrsum 109467.70886463
field min 21.217177558114
field max 25.400294394887
attr interpolationmode  none
attr title  "Latency time of file print, stats"
attr unit  s
statistic UCACnet.owner[89] 	latency:stats
field count 204
field mean 23.573428993439
field stddev 0.67360471669632
field sum 4808.9795146616
field sqrsum 113456.24701259
field min 21.607944667073
field max 25.598686145009
attr interpolationmode  none
attr title  "Latency time of file print, stats"
attr unit  s
statistic UCACnet.owner[90] 	latency:stats
field count 208
field mean 23.513864756209
field stddev 0.67712089582385
field sum 4890.8838692914
field sqrsum 115098.48983131
field min 21.478100971607
field max 24.918751333093
attr interpolationmode  none
attr title  "Latency time of file print, stats"
attr unit  s
statistic UCACnet.owner[91] 	latency:stats
field count 195
field mean 23.50229307935
field stddev 0.79494535720825
field sum 4582.9471504733
field sqrsum 107832.36309306
field min 17.771425031832
field max 25.002906402792
attr interpolationmode  none
attr title  "Latency time of file print, stats"
attr unit  s
statistic UCACnet.owner[92] 	latency:stats
field count 200
field mean 23.498944871592
field stddev 0.72559060691043
field sum 4699.7889743185
field sqrsum 110544.85187967
field min 19.037618631183
field max 25.334276621951
attr interpolationmode  none
attr title  "Latency time of file print, stats"
attr unit  s
statistic UCACnet.owner[93] 	latency:stats
field count 205
field mean 23.518229306637
field stddev 0.66657685381727
field sum 4821.2370078606
field sqrsum 113477.59973173
field min 21.957787924628
field max 24.900866853347
attr interpolationmode  none
attr title  "Latency time of file print, stats"
attr unit  s
statistic UCACnet.owner[94] 	latency:stats
field count 212
field mean 23.460592867997
field stddev 0.84437951197714
field sum 4973.6456880154
field sqrsum 116835.11465261
field min 16.409398807726
field max 25.35983718449
attr interpolationmode  none
attr title  "Latency time of file print, stats"
attr unit  s
statistic UCACnet.owner[95] 	latency:stats
field count 207
field mean 23.553394249601
field stddev 0.68725953041264
field sum 4875.5526096674
field sqrsum 114933.11188657
field min 21.326265387858
field max 25.652803985626
attr interpolationmode  none
attr title  "Latency time of file print, stats"
attr unit  s
statistic UCACnet.owner[96] 	latency:stats
field count 200
field mean 23.525895980327
field stddev 0.71053680762284
field sum 4705.1791960655
field sqrsum 110794.02398388
field min 21.274293211364
field max 25.464613916805
attr interpolationmode  none
attr title  "Latency time of file print, stats"
attr unit  s
statistic UCACnet.owner[97] 	latency:stats
field count 206
field mean 23.542707853147
field stddev 0.71761337360009
field sum 4849.7978177483
field sqrsum 114282.94180564
field min 20.87853173226
field max 25.303047897976
attr interpolationmode  none
attr title  "Latency time of file print, stats"
attr unit  s
statistic UCACnet.owner[98] 	latency:stats
field count 197
field mean 23.536614876505
field stddev 0.62673472693804
field sum 4636.7131306715
field sqrsum 109209.51934737
field min 22.023407294961
field max 24.901320868265
attr interpolationmode  none
attr title  "Latency time of file print, stats"
attr unit  s
statistic UCACnet.owner[99] 	latency:stats
field count 205
field mean 23.523608408361
field stddev 0.69358349100073
field sum 4822.3397237141
field sqrsum 113536.96711677
field min 21.79856011897
field max 25.013736377509
attr interpolationmode  none
attr title  "Latency time of file print, stats"
attr unit  s
statistic UCACnet.owner[100] 	latency:stats
field count 195
field mean 23.573817871337
field stddev 0.68426812336278
field sum 4596.8944849106
field sqrsum 108457.18859678
field min 21.834608595401
field max 25.458143529293
attr interpolationmode  none
attr title  "Latency time of file print, stats"
attr unit  s
statistic UCACnet.owner[101] 	latency:stats
field count 204
field mean 23.4712095931
field stddev 1.0515801676921
field sum 4788.1267569925
field sqrsum 112607.60830407
field min 11.82585412788
field max 25.002684009105
attr interpolationmode  none
attr title  "Latency time of file print, stats"
attr unit  s
statistic UCACnet.owner[102] 	latency:stats
field count 201
field mean 23.506849592714
field stddev 0.69311475512698
field sum 4724.8767681356
field sqrsum 111163.04914543
field min 21.612226769995
field max 25.342901214681
attr interpolationmode  none
attr title  "Latency time of file print, stats"
attr unit  s
statistic UCACnet.owner[103] 	latency:stats
field count 209
field mean 23.561467256477
field stddev 0.64857888064049
field sum 4924.3466566037
field sqrsum 116112.32865851
field min 21.352156996902
field max 24.946770776538
attr interpolationmode  none
attr title  "Latency time of file print, stats"
attr unit  s
statistic UCACnet.owner[104] 	latency:stats
field count 200
field mean 23.505615159894
field stddev 0.67822293821365
field sum 4701.1230319788
field sqrsum 110594.32609344
field min 21.554854685695
field max 25.509288529699
attr interpolationmode  none
attr title  "Latency time of file print, stats"
attr unit  s
statistic UCACnet.owner[105] 	latency:stats
field count 202
field mean 23.485483396576
field stddev 0.69892307872641
field sum 4744.0676461084
field sqrsum 111514.90912238
field min 21.424656342516
field max 25.587899962203
attr interpolationmode  none
attr title  "Latency time of file print, stats"
attr unit  s
statistic UCACnet.owner[106] 	latency:stats
field count 199
field mean 23.498373409428
field stddev 0.89089639663897
field sum 4676.1763084762
field sqrsum 110039.68891003
field min 15.36933461045
field max 25.175376191516
attr interpolationmode  none
attr title  "Latency time of file print, stats"
attr unit  s
statistic UCACnet.owner[107] 	latency:stats
field count 206
field mean 23.544248900095
field stddev 0.6741892388167
field sum 4850.1152734196
field sqrsum 114285.50007314
field min 21.42040694875
field max 25.432581864947
attr interpolationmode  none
attr title  "Latency time of file print, stats"
attr unit  s
statistic UCACnet.owner[108] 	latency:stats
field count 200
field mean 23.520645537265
field stddev 0.74004568051839
field sum 4704.1291074529
field sqrsum 110753.13915217
field min 18.966670504255
field max 25.455240452849
attr interpolationmode  none
attr title  "Latency time of file print, stats"
attr unit  s
statistic UCACnet.owner[109] 	latency:stats
field count 204
field mean 23.51887535724
field stddev 0.677151592666
field sum 4797.850572877
field sqrsum 112933.13206489
field min 21.940391681729
field max 25.338560059702
attr interpolationmode  none
attr title  "Latency time of file print, stats"
attr unit  s
statistic UCACnet.owner[110] 	latency:stats
field count 204
field mean 23.480604112363
field stddev 0.76498079080242
field sum 4790.0432389221
field sqrsum 112591.90368312
field min 17.518550237754
field max 25.620046197375
attr interpolationmode  none
attr title  "Latency time of file print, stats"
attr unit  s
statistic UCACnet.owner[111] 	latency:stats
field count 200
field mean 23.490790651416
field stddev 0.64183956782981
field sum 4698.1581302832
field sqrsum 110445.42873386
field min 21.627307414495
field max 25.647376824616
attr interpolationmode  none
attr title  "Latency time of file print, stats"
attr unit  s
statistic UCACnet.owner[112] 	latency:stats
field count 200
field mean 23.550828002223
field stddev 0.66779825736703
field sum 4710.1656004446
field sqrsum 111017.04486605
field min 20.981709171488
field max 25.488313827905
attr interpolationmode  none
attr title  "Latency time of file print, stats"
attr unit  s
statistic UCACnet.owner[113] 	latency:stats
field count 204
field mean 23.501372572351
field stddev 0.68145049930629
field sum 4794.2800047595
field sqrsum 112766.42868898
field min 21.936243779242
field max 25.586755394961
attr interpolationmode  none
attr title  "Latency time of file print, stats"
attr unit  s
statistic UCACnet.owner[114] 	latency:stats
field count 199
field mean 23.528186604282
field stddev 0.7030808957085
field sum 4682.109134252
field sqrsum 110259.41331598
field min 20.162880359338
field max 25.170015052682
attr interpolationmode  none
attr title  "Latency time of file print, stats"
attr unit  s
statistic UCACnet.owner[115] 	latency:stats
field count 201
field mean 23.536625510107
field stddev 0.6827444180477
field sum 4730.8617275314
field sqrsum 111441.74880908
field min 21.571363851629
field max 25.566190216484
attr interpolationmode  none
attr title  "Latency time of file print, stats"
attr unit  s
statistic UCACnet.owner[116] 	latency:stats
field count 204
field mean 23.53789324247
field stddev 0.67725341802929
field sum 4801.7302214639
field sqrsum 113115.72378698
field min 21.346023274622
field max 25.682888352356
attr interpolationmode  none
attr title  "Latency time of file print, stats"
attr unit  s
statistic UCACnet.owner[117] 	latency:stats
field count 206
field mean 23.49661504466
field stddev 0.6919858709019
field sum 4840.3026992
field sqrsum 113828.89233407
field min 20.948359195835
field max 25.007693934302
attr interpolationmode  none
attr title  "Latency time of file print, stats"
attr unit  s
statistic UCACnet.owner[118] 	latency:stats
field count 204
field mean 23.493549297872
field stddev 0.73021948200593
field sum 4792.6840567658
field sqrsum 112705.40291661
field min 19.978915607221
field max 25.278040022209
attr interpolationmode  none
attr title  "Latency time of file print, stats"
attr unit  s
statistic UCACnet.owner[119] 	latency:stats
field count 205
field mean 23.498177043894
field stddev 0.65856993205522
field sum 4817.1262939982
field sqrsum 113282.16422767
field min 21.480852999851
field max 25.398750708525
attr interpolationmode  none
attr title  "Latency time of file print, stats"
attr unit  s
statistic UCACnet.owner[120] 	latency:stats
field count 200
field mean 23.500173357804
field stddev 0.7742988829629
field sum 4700.0346715608
field sqrsum 110570.93778264
field min 17.418411130549
field max 25.091660454003
attr interpolationmode  none
attr title  "Latency time of file print, stats"
attr unit  s
statistic UCACnet.owner[121] 	latency:stats
field count 203
field mean 23.510482070348
field stddev 0.63645625669286
field sum 4772.6278602806
field sqrsum 112288.60720404
field min 21.966673392786
field max 25.516930135942
attr interpolationmode  none
attr title  "Latency time of file print, stats"
attr unit  s
statistic UCACnet.owner[122] 	latency:stats
field count 199
field mean 23.478889068178
field stddev 0.87805933818988
field sum 4672.2989245673
field sqrsum 109853.04380716
field min 15.782131594086
field max 25.375316543023
attr interpolationmode  none
attr title  "Latency time of file print, stats"
attr unit  s
statistic UCACnet.owner[123] 	latency:stats
field count 204
field mean 23.539679666954
field stddev 0.70964911563376
field sum 4802.0946520586
field sqrsum 113142.00101892
field min 21.009977094452
field max 25.599121111556
attr interpolationmode  none
attr title  "Latency time of file print, stats"
attr unit  s
statistic UCACnet.owner[124] 	latency:stats
field count 199
field mean 23.5187837793
field stddev 0.65483794343
field sum 4680.2379720807
field sqrsum 110158.409822
field min 21.770777175676
field max 25.476595001825
attr interpolationmode  none
attr title  "Latency time of file print, stats"
attr unit  s
statistic UCACnet.owner[125] 	latency:stats
field count 207
field mean 23.56574580591
field stddev 0.7305240982036
field sum 4878.1093818233
field sqrsum 115066.22078983
field min 21.013294046498
field max 25.555932314656
attr interpolationmode  none
attr title  "Latency time of file print, stats"
attr unit  s
statistic UCACnet.owner[126] 	latency:stats
field count 207
field mean 23.469267218802
field stddev 0.84791324604593
field sum 4858.138314292
field sqrsum 114165.05139982
field min 16.718562999489
field max 25.526066781738
attr interpolationmode  none
attr title  "Latency time of file print, stats"
attr unit  s
statistic UCACnet.owner[127] 	latency:stats
field count 208
field mean 23.535398660118
field stddev 0.62254909736496
field sum 4895.3629213046
field sqrsum 115294.54438624
field min 21.643267367804
field max 25.623976672192
attr interpolationmode  none
attr title  "Latency time of file print, stats"
attr unit  s
statistic UCACnet.owner[128] 	latency:stats
field count 202
field mean 23.529018820141
field stddev 0.72838450111027
field sum 4752.8618016684
field sqrsum 111936.81412126
field min 18.556879726938
field max 24.988921591009
attr interpolationmode  none
attr title  "Latency time of file print, stats"
attr unit  s
statistic UCACnet.owner[129] 	latency:stats
field count 202
field mean 23.519581587435
field stddev 0.709983038362
field sum 4750.9554806619
field sqrsum 111841.80430457
field min 21.41819942542
field max 25.607688284046
attr interpolationmode  none
attr title  "Latency time of file print, stats"
attr unit  s
statistic UCACnet.owner[130] 	latency:stats
field count 204
field mean 23.536332634401
field stddev 0.66014842870392
field sum 4801.4118574178
field sqrsum 113096.09316837
field min 21.966743281122
field max 24.981879158508
attr interpolationmode  none
attr title  "Latency time of file print, stats"
attr unit  s
statistic UCACnet.owner[131] 	latency:stats
field count 202
field mean 23.578709865936
field stddev 0.66666518203679
field sum 4762.8993929191
field sqrsum 112392.35584173
field min 21.972686083708
field max 25.210621621399
attr interpolationmode  none
attr title  "Latency time of file print, stats"
attr unit  s
statistic UCACnet.owner[132] 	latency:stats
field count 202
field mean 23.537357456332
field stddev 0.65846224025302
field sum 4754.5462061791
field sqrsum 111996.60167438
field min 21.624306073636
field max 25.398997817048
attr interpolationmode  none
attr title  "Latency time of file print, stats"
attr unit  s
statistic UCACnet.owner[133] 	latency:stats
field count 203
field mean 23.451725832738
field stddev 1.175268688354
field sum 4760.7003440459
field sqrsum 111925.65305133
field min 9.829039907702
field max 25.50524453857
attr interpolationmode  none
attr title  "Latency time of file print, stats"
attr unit  s
statistic UCACnet.owner[134] 	latency:stats
field count 205
field mean 23.511688742896
field stddev 0.86541824300244
field sum 4819.8961922936
field sqrsum 113476.68458828
field min 15.184236876761
field max 24.955787164823
attr interpolationmode  none
attr title  "Latency time of file print, stats"
attr unit  s
statistic UCACnet.owner[135] 	latency:stats
field count 196
field mean 23.566248746663
field stddev 0.61423184364855
field sum 4618.984754346
field sqrsum 108925.71342572
field min 21.778425751749
field max 25.378001821092
attr interpolationmode  none
attr title  "Latency time of file print, stats"
attr unit  s
statistic UCACnet.owner[136] 	latency:stats
field count 202
field mean 23.540893889854
field stddev 0.66426442844126
field sum 4755.2605657505
field sqrsum 112031.77509035
field min 21.731138104929
field max 25.203552303237
attr interpolationmode  none
attr title  "Latency time of file print, stats"
attr unit  s
statistic UCACnet.owner[137] 	latency:stats
field count 207
field mean 23.545711449786
field stddev 0.68931943794075
field sum 4873.9622701057
field sqrsum 114858.79245428
field min 21.566508209221
field max 25.603007521523
attr interpolationmode  none
attr title  "Latency time of file print, stats"
attr unit  s
statistic UCACnet.owner[138] 	latency:stats
field count 201
field mean 23.491752002461
field stddev 0.91161478776517
field sum 4721.8421524948
field sqrsum 111090.55314543
field min 15.155337938921
field max 24.954980296531
attr interpolationmode  none
attr title  "Latency time of file print, stats"
attr unit  s
statistic UCACnet.owner[139] 	latency:stats
field count 201
field mean 23.521024266746
field stddev 0.6447958244414
field sum 4727.725877616
field sqrsum 111284.10742497
field min 21.94190239114
field max 25.054046986649
attr interpolationmode  none
attr title  "Latency time of file print, stats"
attr unit  s
statistic UCACnet.owner[140] 	latency:stats
field count 200
field mean 23.554853791063
field stddev 0.65049374465916
field sum 4710.9707582126
field sqrsum 111050.43270393
field min 21.998682460745
field max 25.173410019571
attr interpolationmode  none
attr title  "Latency time of file print, stats"
attr unit  s
statistic UCACnet.owner[141] 	latency:stats
field count 204
field mean 23.516303752616
field stddev 0.65438538350365
field sum 4797.3259655336
field sqrsum 112902.30331252
field min 21.459800030114
field max 25.130578385041
attr interpolationmode  none
attr title  "Latency time of file print, stats"
attr unit  s
statistic UCACnet.owner[142] 	latency:stats
field count 205
field mean 23.546691672277
field stddev 0.67067898051161
field sum 4827.0717928169
field sqrsum 113753.33248557
field min 21.711492417502
field max 25.033685946865
attr interpolationmode  none
attr title  "Latency time of file print, stats"
attr unit  s
statistic UCACnet.owner[143] 	latency:stats
field count 207
field mean 23.490678919988
field stddev 0.68837866660168
field sum 4862.5705364376
field sqrsum 114322.69942611
field min 20.970635919464
field max 25.317435843348
attr interpolationmode  none
attr title  "Latency time of file print, stats"
attr unit  s
statistic UCACnet.owner[144] 	latency:stats
field count 207
field mean 23.517061439408
field stddev 0.68301974341339
field sum 4868.0317179575
field sqrsum 114577.90328999
field min 21.779933267606
field max 25.559904195758
attr interpolationmode  none
attr title  "Latency time of file print, stats"
attr unit  s
statistic UCACnet.owner[145] 	latency:stats
field count 202
field mean 23.494849142431
field stddev 0.97055443298273
field sum 4745.959526771
field sqrsum 111694.94027495
field min 13.052416427773
field max 25.096154980141
attr interpolationmode  none
attr title  "Latency time of file print, stats"
attr unit  s
statistic UCACnet.owner[146] 	latency:stats
field count 204
field mean 23.499917663172
field stddev 0.67290622106744
field sum 4793.9832032871
field sqrsum 112750.12952069
field min 21.883051416473
field max 25.490323473604
attr interpolationmode  none
attr title  "Latency time of file print, stats"
attr unit  s
statistic UCACnet.owner[147] 	latency:stats
field count 201
field mean 23.533795739085
field stddev 0.64434451324695
field sum 4730.2929435561
field sqrsum 111404.78389004
field min 22.030751625628
field max 25.04250738114
attr interpolationmode  none
attr title  "Latency time of file print, stats"
attr unit  s
statistic UCACnet.owner[148] 	latency:stats
field count 204
field mean 23.499127764
field stddev 0.68880876142624
field sum 4793.822063856
field sqrsum 112746.95203093
field min 21.600193507481
field max 25.057029534711
attr interpolationmode  none
attr title  "Latency time of file print, stats"
attr unit  s
statistic UCACnet.owner[149] 	latency:stats
field count 201
field mean 23.498851315871
field stddev 1.1239021840043
field sum 4723.2691144901
field sqrsum 111244.02987009
field min 10.499784410549
field max 25.520093479469
attr interpolationmode  none
attr title  "Latency time of file print, stats"
attr unit  s
statistic UCACnet.owner[150] 	latency:stats
field count 206
field mean 23.456668928702
field stddev 1.0492672437676
field sum 4832.0737993126
field sqrsum 113570.05250804
field min 11.979922701428
field max 24.912322778916
attr interpolationmode  none
attr title  "Latency time of file print, stats"
attr unit  s
statistic UCACnet.owner[151] 	latency:stats
field count 205
field mean 23.525014217335
field stddev 0.65440742673043
field sum 4822.6279145537
field sqrsum 113539.75306715
field min 21.518207148955
field max 25.383361756265
attr interpolationmode  none
attr title  "Latency time of file print, stats"
attr unit  s
statistic UCACnet.owner[152] 	latency:stats
field count 203
field mean 23.502897372055
field stddev 0.67864360769118
field sum 4771.0881665271
field sqrsum 112227.42807445
field min 20.997583282373
field max 25.021900329955
attr interpolationmode  none
attr title  "Latency time of file print, stats"
attr unit  s
statistic UCACnet.owner[153] 	latency:stats
field count 202
field mean 23.5533681299
field stddev 0.63629277419861
field sum 4757.7803622397
field sqrsum 112143.13092043
field min 21.935180596354
field max 25.489148051771
attr interpolationmode  none
attr title  "Latency time of file print, stats"
attr unit  s
statistic UCACnet.owner[154] 	latency:stats
field count 207
field mean 23.52387496697
field stddev 0.84944800164485
field sum 4869.4421181628
field sqrsum 114696.7892995
field min 16.139118038898
field max 25.123861570837
attr interpolationmode  none
attr title  "Latency time of file print, stats"
attr unit  s
statistic UCACnet.owner[155] 	latency:stats
field count 196
field mean 23.538245564922
field stddev 0.6514107374878
field sum 4613.4961307246
field sqrsum 108676.35034785
field min 21.208053579303
field max 25.357749648403
attr interpolationmode  none
attr title  "Latency time of file print, stats"
attr unit  s
statistic UCACnet.owner[156] 	latency:stats
field count 203
field mean 23.509986226518
field stddev 0.72075782430317
field sum 4772.5272039832
field sqrsum 112306.98618327
field min 21.263924798197
field max 25.467889296845
attr interpolationmode  none
attr title  "Latency time of file print, stats"
attr unit  s
statistic UCACnet.owner[157] 	latency:stats
field count 198
field mean 23.477638843346
field stddev 0.66312726436343
field sum 4648.5724909824
field sqrsum 109224.13442084
field min 21.6252113176
field max 24.865600685045
attr interpolationmode  none
attr title  "Latency time of file print, stats"
attr unit  s
statistic UCACnet.owner[158] 	latency:stats
field count 209
field mean 23.444410490674
field stddev 0.81958260186304
field sum 4899.8817925509
field sqrsum 115014.55695373
field min 16.075799327757
field max 25.452653336581
attr interpolationmode  none
attr title  "Latency time of file print, stats"
attr unit  s
statistic UCACnet.owner[159] 	latency:stats
field count 203
field mean 23.554296835879
field stddev 0.67224244128593
field sum 4781.5222576834
field sqrsum 112716.68038461
field min 21.823761424989
field max 25.03553321359
attr interpolationmode  none
attr title  "Latency time of file print, stats"
attr unit  s
statistic UCACnet.owner[160] 	latency:stats
field count 208
field mean 23.501804397377
field stddev 0.61400646766678
field sum 4888.3753146543
field sqrsum 114963.68028203
field min 21.588676203393
field max 25.04436646683
attr interpolationmode  none
attr title  "Latency time of file print, stats"
attr unit  s
statistic UCACnet.owner[161] 	latency:stats
field count 200
field mean 23.521430074205
field stddev 0.66137297315031
field sum 4704.2860148409
field sqrsum 110738.57997485
field min 21.632883038819
field max 25.310953126227
attr interpolationmode  none
attr title  "Latency time of file print, stats"
attr unit  s
statistic UCACnet.owner[162] 	latency:stats
field count 198
field mean 23.56968220236
field stddev 0.68969080842458
field sum 4666.7970760674
field sqrsum 110088.63164782
field min 21.154059161455
field max 25.111522718882
attr interpolationmode  none
attr title  "Latency time of file print, stats"
attr unit  s
statistic UCACnet.owner[163] 	latency:stats
field count 199
field mean 23.540062060265
field stddev 0.66474894422148
field sum 4684.4723499927
field sqrsum 110360.26428787
field min 21.722148781235
field max 25.249707692743
attr interpolationmode  none
attr title  "Latency time of file print, stats"
attr unit  s
statistic UCACnet.owner[164] 	latency:stats
field count 201
field mean 23.487093715719
field stddev 0.9909962599017
field sum 4720.9058368596
field sqrsum 111076.77253084
field min 13.406711677189
field max 25.290042534564
attr interpolationmode  none
attr title  "Latency time of file print, stats"
attr unit  s
statistic UCACnet.owner[165] 	latency:stats
field count 201
field mean 23.54258969038
field stddev 0.72237704877891
field sum 4732.0605277663
field sqrsum 111509.32511536
field min 19.287731211193
field max 25.272070038005
attr interpolationmode  none
attr title  "Latency time of file print, stats"
attr unit  s
statistic UCACnet.owner[166] 	latency:stats
field count 201
field mean 23.527874782597
field stddev 0.70225930307264
field sum 4729.102831302
field sqrsum 111364.37287465
field min 21.584470923146
field max 25.59931893727
attr interpolationmode  none
attr title  "Latency time of file print, stats"
attr unit  s
statistic UCACnet.owner[167] 	latency:stats
field count 195
field mean 23.539064288335
field stddev 0.66971517988738
field sum 4590.1175362253
field sqrsum 108134.08435012
field min 22.100796642607
field max 24.953572899175
attr interpolationmode  none
attr title  "Latency time of file print, stats"
attr unit  s
statistic UCACnet.owner[168] 	latency:stats
field count 199
field mean 23.527040448126
field stddev 0.688986973488
field sum 4681.8810491771
field sqrsum 110244.79602113
field min 21.901106896763
field max 25.296867113319
attr interpolationmode  none
attr title  "Latency time of file print, stats"
attr unit  s
statistic UCACnet.owner[169] 	latency:stats
field count 202
field mean 23.522848198703
field stddev 0.65256632391547
field sum 4751.6153361381
field sqrsum 111857.12065483
field min 21.852121312787
field max 25.234886308397
attr interpolationmode  none
attr title  "Latency time of file print, stats"
attr unit  s
statistic UCACnet.owner[170] 	latency:stats
field count 204
field mean 23.515872159065
field stddev 0.66526975469814
field sum 4797.2379204492
field sqrsum 112901.07817474
field min 20.529537291032
field max 25.105044243646
attr interpolationmode  none
attr title  "Latency time of file print, stats"
attr unit  s
statistic UCACnet.owner[171] 	latency:stats
field count 205
field mean 23.531949603067
field stddev 0.67188323756403
field sum 4824.0496686287
field sqrsum 113611.38481019
field min 21.141309790948
field max 25.63271746948
attr interpolationmode  none
attr title  "Latency time of file print, stats"
attr unit  s
statistic UCACnet.owner[172] 	latency:stats
field count 200
field mean 23.549252164924
field stddev 0.6601888315689
field sum 4709.8504329848
field sqrsum 111000.18951481
field min 22.065557394504
field max 25.025826243603
attr interpolationmode  none
attr title  "Latency time of file print, stats"
attr unit  s
statistic UCACnet.owner[173] 	latency:stats
field count 196
field mean 23.505455470172
field stddev 0.63533700443513
field sum 4607.0692721538
field sqrsum 108369.97398091
field min 21.044620873944
field max 25.019034473032
attr interpolationmode  none
attr title  "Latency time of file print, stats"
attr unit  s
statistic UCACnet.owner[174] 	latency:stats
field count 205
field mean 23.43409900684
field stddev 0.88112417935532
field sum 4803.9902964022
field sqrsum 112735.56571696
field min 15.081182607828
field max 25.377755232491
attr interpolationmode  none
attr title  "Latency time of file print, stats"
attr unit  s
statistic UCACnet.owner[175] 	latency:stats
field count 200
field mean 23.53390390342
field stddev 0.6714917370236
field sum 4706.780780684
field sqrsum 110858.65591651
field min 21.692430175209
field max 25.562392125943
attr interpolationmode  none
attr title  "Latency time of file print, stats"
attr unit  s
statistic UCACnet.owner[176] 	latency:stats
field count 203
field mean 23.569841482814
field stddev 0.67863106066727
field sum 4784.6778210112
field sqrsum 112867.1268911
field min 21.368783937901
field max 25.095353567217
attr interpolationmode  none
attr title  "Latency time of file print, stats"
attr unit  s
statistic UCACnet.owner[177] 	latency:stats
field count 205
field mean 23.512156855564
field stddev 0.9545216868238
field sum 4819.9921553906
field sqrsum 113514.27837686
field min 14.363980868615
field max 25.595286565744
attr interpolationmode  none
attr title  "Latency time of file print, stats"
attr unit  s
statistic UCACnet.owner[178] 	latency:stats
field count 206
field mean 23.534842954675
field stddev 0.6542537479535
field sum 4848.177648663
field sqrsum 114188.84941082
field min 22.0223166579
field max 25.429161938303
attr interpolationmode  none
attr title  "Latency time of file print, stats"
attr unit  s
statistic UCACnet.owner[179] 	latency:stats
field count 200
field mean 23.483600255864
field stddev 0.70169664474898
field sum 4696.7200511729
field sqrsum 110393.87945352
field min 20.81628153672
field max 25.288549840414
attr interpolationmode  none
attr title  "Latency time of file print, stats"
attr unit  s
statistic UCACnet.owner[180] 	latency:stats
field count 202
field mean 23.531165069032
field stddev 0.71308292927559
field sum 4753.2953439445
field sqrsum 111952.78330029
field min 21.604083551025
field max 25.517572361525
attr interpolationmode  none
attr title  "Latency time of file print, stats"
attr unit  s
statistic UCACnet.owner[181] 	latency:stats
field count 202
field mean 23.426564319657
field stddev 1.1963515526871
field sum 4732.1659925708
field sqrsum 111146.07366081
field min 9.51367818537
field max 25.0120668853
attr interpolationmode  none
attr title  "Latency time of file print, stats"
attr unit  s
statistic UCACnet.owner[182] 	latency:stats
field count 199
field mean 23.531320737593
field stddev 0.69401141794668
field sum 4682.732826781
field sqrsum 110286.25514139
field min 21.554044959453
field max 25.481282084468
attr interpolationmode  none
attr title  "Latency time of file print, stats"
attr unit  s
statistic UCACnet.owner[183] 	latency:stats
field count 208
field mean 23.568350885249
field stddev 0.66413338427039
field sum 4902.2169841318
field sqrsum 115628.47214013
field min 21.851546885296
field max 24.973595629979
attr interpolationmode  none
attr title  "Latency time of file print, stats"
attr unit  s
statistic UCACnet.owner[184] 	latency:stats
field count 206
field mean 23.45856359766
field stddev 0.84547291965218
field sum 4832.4641011179
field sqrsum 113509.20546335
field min 16.490378556403
field max 25.586601915249
attr interpolationmode  none
attr title  "Latency time of file print, stats"
attr unit  s
statistic UCACnet.owner[185] 	latency:stats
field count 200
field mean 23.567466624862
field stddev 0.69597908467705
field sum 4713.4933249723
field sqrsum 111181.48961317
field min 21.4152573599
field max 25.391655378896
attr interpolationmode  none
attr title  "Latency time of file print, stats"
attr unit  s
statistic UCACnet.owner[186] 	latency:stats
field count 200
field mean 23.514683968274
field stddev 0.67601748936503
field sum 4702.9367936548
field sqrsum 110679.0153551
field min 21.838324665717
field max 25.264940095439
attr interpolationmode  none
attr title  "Latency time of file print, stats"
attr unit  s
statistic UCACnet.owner[187] 	latency:stats
field count 199
field mean 23.563370138194
field stddev 0.68070922187302
field sum 4689.1106575006
field sqrsum 110582.99632049
field min 21.297384158769
field max 25.581863877087
attr interpolationmode  none
attr title  "Latency time of file print, stats"
attr unit  s
statistic UCACnet.owner[188] 	latency:stats
field count 200
field mean 23.591837869521
field stddev 0.67044251652632
field sum 4718.3675739043
field sqrsum 111404.41195278
field min 21.095144021749
field max 25.204520326446
attr interpolationmode  none
attr title  "Latency time of file print, stats"
attr unit  s
statistic UCACnet.owner[189] 	latency:stats
field count 202
field mean 23.487391771694
field stddev 0.70755934508358
field sum 4744.4531378821
field sqrsum 111535.45827747
field min 20.460508454387
field max 25.566277684941
attr interpolationmode  none
attr title  "Latency time of file print, stats"
attr unit  s
statistic UCACnet.owner[190] 	latency:stats
field count 205
field mean 23.495110655641
field stddev 0.78592542419115
field sum 4816.4976844064
field sqrsum 113290.15253733
field min 18.098181306338
field max 25.487506602984
attr interpolationmode  none
attr title  "Latency time of file print, stats"
attr unit  s
statistic UCACnet.owner[191] 	latency:stats
field count 196
field mean 23.507516540499
field stddev 0.6703632691012
field sum 4607.4732419378
field sqrsum 108397.88389271
field min 21.060356070419
field max 25.627949094453
attr interpolationmode  none
attr title  "Latency time of file print, stats"
attr unit  s
statistic UCACnet.owner[192] 	latency:stats
field count 201
field mean 23.545604908264
field stddev 0.67185314472538
field sum 4732.6665865611
field sqrsum 111523.77493932
field min 21.865020056232
field max 24.989750065273
attr interpolationmode  none
attr title  "Latency time of file print, stats"
attr unit  s
statistic UCACnet.owner[193] 	latency:stats
field count 207
field mean 23.538924529675
field stddev 0.67842416611405
field sum 4872.5573776428
field sqrsum 114789.57380477
field min 20.993168291211
field max 25.538695476866
attr interpolationmode  none
attr title  "Latency time of file print, stats"
attr unit  s
statistic UCACnet.owner[194] 	latency:stats
field count 208
field mean 23.464207967063
field stddev 1.1304692314174
field sum 4880.5552571492
field sqrsum 114782.90140991
field min 10.508561104054
field max 25.557336266418
attr interpolationmode  none
attr title  "Latency time of file print, stats"
attr unit  s
statistic UCACnet.owner[195] 	latency:stats
field count 209
field mean 23.477562140843
field stddev 0.78428212496122
field sum 4906.8104874362
field sqrsum 115327.88861004
field min 17.671163172163
field max 25.619172235047
attr interpolationmode  none
attr title  "Latency time of file print, stats"
attr unit  s
statistic UCACnet.owner[196] 	latency:stats
field count 201
field mean 23.543941622923
field stddev 0.63483021888414
field sum 4732.3322662076
field sqrsum 111498.35649723
field min 21.59191050684
field max 25.33726300361
attr interpolationmode  none
attr title  "Latency time of file print, stats"
attr unit  s
statistic UCACnet.owner[197] 	latency:stats
field count 203
field mean 23.507887006351
field stddev 0.66095389654669
field sum 4772.1010622892
field sqrsum 112270.25828596
field min 21.770382470693
field max 25.295875700717
attr interpolationmode  none
attr title  "Latency time of file print, stats"
attr unit  s
statistic UCACnet.owner[198] 	latency:stats
field count 201
field mean 23.500396945209
field stddev 1.1925507519628
field sum 4723.5797859869
field sqrsum 111290.43543226
field min 9.202620287087
field max 25.407747308053
attr interpolationmode  none
attr title  "Latency time of file print, stats"
attr unit  s
statistic UCACnet.owner[199] 	latency:stats
field count 206
field mean 23.502652952796
field stddev 0.79991094114465
field sum 4841.5465082759
field sqrsum 113920.35812915
field min 17.062270629705
field max 25.135226372361
attr interpolationmode  none
attr title  "Latency time of file print, stats"
attr unit  s
statistic UCACnet.owner[200] 	latency:stats
field count 204
field mean 23.552586801696
field stddev 0.69736289605038
field sum 4804.7277075459
field sqrsum 113262.48833727
field min 21.419776629715
field max 25.341200203462
attr interpolationmode  none
attr title  "Latency time of file print, stats"
attr unit  s
statistic UCACnet.owner[201] 	latency:stats
field count 205
field mean 23.502306894888
field stddev 0.63458158666859
field sum 4817.9729134521
field sqrsum 113315.6275564
field min 21.421108606476
field max 24.92558099202
attr interpolationmode  none
attr title  "Latency time of file print, stats"
attr unit  s
statistic UCACnet.owner[202] 	latency:stats
field count 203
field mean 23.483415758426
field stddev 0.6932149082513
field sum 4767.1333989604
field sqrsum 112045.64605929
field min 20.714469083464
field max 25.545033275943
attr interpolationmode  none
attr title  "Latency time of file print, stats"
attr unit  s
statistic UCACnet.owner[203] 	latency:stats
field count 204
field mean 23.56792549865
field stddev 0.66966270988443
field sum 4807.8568017246
field sqrsum 113402.24588466
field min 21.922784323409
field max 25.581895320203
attr interpolationmode  none
attr title  "Latency time of file print, stats"
attr unit  s
statistic UCACnet.owner[204] 	latency:stats
field count 205
field mean 23.571901787414
field stddev 0.61621690634818
field sum 4832.2398664198
field sqrsum 113982.54709271
field min 21.363506727191
field max 24.9077182862
attr interpolationmode  none
attr title  "Latency time of file print, stats"
attr unit  s
statistic UCACnet.owner[205] 	latency:stats
field count 205
field mean 23.515462179782
field stddev 0.7263915477734
field sum 4820.6697468553
field sqrsum 113467.91662825
field min 21.082218309658
field max 25.498740931361
attr interpolationmode  none
attr title  "Latency time of file print, stats"
attr unit  s
statistic UCACnet.owner[206] 	latency:stats
field count 205
field mean 23.54258522775
field stddev 0.65562556929572
field sum 4826.2299716888
field sqrsum 113709.61879418
field min 21.93855293776
field max 25.161126479258
attr interpolationmode  none
attr title  "Latency time of file print, stats"
attr unit  s
statistic UCACnet.owner[207] 	latency:stats
field count 203
field mean 23.528271314141
field stddev 0.60693964955144
field sum 4776.2390767705
field sqrsum 112451.06075857
field min 21.54937573067
field max 25.584029121123
attr interpolationmode  none
attr title  "Latency time of file print, stats"
attr unit  s
statistic UCACnet.owner[208] 	latency:stats
field count 205
field mean 23.529352721861
field stddev 0.71381601019104
field sum 4823.5173079815
field sqrsum 113598.18489196
field min 20.07147596693
field max 25.532054892994
attr interpolationmode  none
attr title  "Latency time of file print, stats"
attr unit  s
statistic UCACnet.owner[209] 	latency:stats
field count 202
field mean 23.475450977418
field stddev 0.66577467987722
field sum 4742.0410974384
field sqrsum 111410.64775661
field min 21.062697848404
field max 24.885099250332
attr interpolationmode  none
attr title  "Latency time of file print, stats"
attr unit  s
statistic UCACnet.owner[210] 	latency:stats
field count 200
field mean 23.553281881108
field stddev 0.66571039450203
field sum 4710.6563762216
field sqrsum 111039.60836973
field min 20.953680144575
field max 25.311805643585
attr interpolationmode  none
attr title  "Latency time of file print, stats"
attr unit  s
statistic UCACnet.owner[211] 	latency:stats
field count 210
field mean 23.560420062691
field stddev 0.63790742786429
field sum 4947.6882131651
field sqrsum 116654.66015168
field min 21.983369098481
field max 24.830909102145
attr interpolationmode  none
attr title  "Latency time of file print, stats"
attr unit  s
statistic UCACnet.owner[212] 	latency:stats
field count 203
field mean 23.529905173299
field stddev 0.67647759455397
field sum 4776.5707501796
field sqrsum 112484.69643634
field min 21.455396942115
field max 25.251400665797
attr interpolationmode  none
attr title  "Latency time of file print, stats"
attr unit  s
statistic UCACnet.owner[213] 	latency:stats
field count 205
field mean 23.516423479444
field stddev 0.69205403148107
field sum 4820.8668132859
field sqrsum 113467.24903086
field min 21.597827335523
field max 25.535408785051
attr interpolationmode  none
attr title  "Latency time of file print, stats"
attr unit  s
statistic UCACnet.owner[214] 	latency:stats
field count 213
field mean 23.553078119503
field stddev 0.68610579245342
field sum 5016.8056394541
field sqrsum 118261.01226201
field min 21.841642096075
field max 25.601375193867
attr interpolationmode  none
attr title  "Latency time of file print, stats"
attr unit  s
statistic UCACnet.owner[215] 	latency:stats
field count 201
field mean 23.587796576996
field stddev 0.68056404136704
field sum 4741.1471119762
field sqrsum 111925.84710179
field min 21.883984496704
field max 25.626564842723
attr interpolationmode  none
attr title  "Latency time of file print, stats"
attr unit  s
statistic UCACnet.owner[216] 	latency:stats
field count 207
field mean 23.476037325184
field stddev 0.72999369702294
field sum 4859.5397263132
field sqrsum 114192.51150247
field min 19.409485763099
field max 25.58063164963
attr interpolationmode  none
attr title  "Latency time of file print, stats"
attr unit  s
statistic UCACnet.owner[217] 	latency:stats
field count 203
field mean 23.481237574902
field stddev 0.68903523632027
field sum 4766.6912277051
field sqrsum 112023.71261444
field min 21.129392901295
field max 25.348771294715
attr interpolationmode  none
attr title  "Latency time of file print, stats"
attr unit  s
statistic UCACnet.owner[218] 	latency:stats
field count 203
field mean 23.547566884898
field stddev 0.6880330489432
field sum 4780.1560776343
field sqrsum 112656.66963259
field min 21.28672333048
field max 25.368148626178
attr interpolationmode  none
attr title  "Latency time of file print, stats"
attr unit  s
statistic UCACnet.owner[219] 	latency:stats
field count 199
field mean 23.545779489137
field stddev 0.65687999529549
field sum 4685.6101183382
field sqrsum 110411.77790145
field min 21.880199558983
field max 25.474378154363
attr interpolationmode  none
attr title  "Latency time of file print, stats"
attr unit  s
statistic UCACnet.owner[220] 	latency:stats
field count 201
field mean 23.594131982076
field stddev 0.63184805880867
field sum 4742.4205283972
field sqrsum 111973.14225539
field min 22.149524877236
field max 25.583841140458
attr interpolationmode  none
attr title  "Latency time of file print, stats"
attr unit  s
statistic UCACnet.owner[221] 	latency:stats
field count 201
field mean 23.534324484376
field stddev 0.67164535247827
field sum 4730.3992213595
field sqrsum 111416.97171201
field min 21.491847404038
field max 24.980147680335
attr interpolationmode  none
attr title  "Latency time of file print, stats"
attr unit  s
statistic UCACnet.owner[222] 	latency:stats
field count 203
field mean 23.580091443398
field stddev 0.66064517254206
field sum 4786.7585630098
field sqrsum 112960.36794613
field min 21.549076935207
field max 25.597263019056
attr interpolationmode  none
attr title  "Latency time of file print, stats"
attr unit  s
statistic UCACnet.owner[223] 	latency:stats
field count 205
field mean 23.503799410404
field stddev 0.71159221822274
field sum 4818.2788791329
field sqrsum 113351.15842947
field min 20.981015561069
field max 24.99853420894
attr interpolationmode  none
attr title  "Latency time of file print, stats"
attr unit  s
statistic UCACnet.owner[224] 	latency:stats
field count 201
field mean 23.516768365731
field stddev 0.66370533533082
field sum 4726.8704415119
field sqrsum 111248.81822228
field min 22.037820884273
field max 25.646346585344
attr interpolationmode  none
attr title  "Latency time of file print, stats"
attr unit  s
statistic UCACnet.owner[225] 	latency:stats
field count 200
field mean 23.517153579354
field stddev 0.80561832294565
field sum 4703.4307158707
field sqrsum 110740.45765055
field min 15.942419218389
field max 25.169107453563
attr interpolationmode  none
attr title  "Latency time of file print, stats"
attr unit  s
statistic UCACnet.owner[226] 	latency:stats
field count 206
field mean 23.528991542036
field stddev 0.68921890019938
field sum 4846.9722576594
field sqrsum 114141.74890689
field min 21.190177453486
field max 25.595090121584
attr interpolationmode  none
attr title  "Latency time of file print, stats"
attr unit  s
statistic UCACnet.owner[227] 	latency:stats
field count 209
field mean 23.544052013017
field stddev 0.65879177825967
field sum 4920.7068707204
field sqrsum 115943.65187933
field min 21.733888090671
field max 25.649051666061
attr interpolationmode  none
attr title  "Latency time of file print, stats"
attr unit  s
statistic UCACnet.owner[228] 	latency:stats
field count 205
field mean 23.506433178297
field stddev 0.66050198197636
field sum 4818.8188015509
field sqrsum 113362.23978209
field min 22.059725912663
field max 25.349438031627
attr interpolationmode  none
attr title  "Latency time of file print, stats"
attr unit  s
statistic UCACnet.owner[229] 	latency:stats
field count 206
field mean 23.575775999347
field stddev 0.66125264540219
field sum 4856.6098558655
field sqrsum 114587.98336562
field min 22.020480773934
field max 25.528871032742
attr interpolationmode  none
attr title  "Latency time of file print, stats"
attr unit  s
statistic UCACnet.owner[230] 	latency:stats
field count 210
field mean 23.48942115901
field stddev 0.65626501699951
field sum 4932.7784433922
field sqrsum 115958.12324939
field min 21.454215517311
field max 25.602332684176
attr interpolationmode  none
attr title  "Latency time of file print, stats"
attr unit  s
statistic UCACnet.owner[231] 	latency:stats
field count 209
field mean 23.549059072559
field stddev 0.69475560751018
field sum 4921.7533461648
field sqrsum 116003.05884306
field min 21.769955251671
field max 25.572427258089
attr interpolationmode  none
attr title  "Latency time of file print, stats"
attr unit  s
statistic UCACnet.owner[232] 	latency:stats
field count 208
field mean 23.535106512703
field stddev 0.72787887555725
field sum 4895.3021546423
field sqrsum 115321.12780647
field min 21.487364447803
field max 25.405965354273
attr interpolationmode  none
attr title  "Latency time of file print, stats"
attr unit  s
statistic UCACnet.owner[233] 	latency:stats
field count 207
field mean 23.488207976
field stddev 0.69428076667592
field sum 4862.0590510319
field sqrsum 114300.35149352
field min 20.10758093131
field max 25.252033599606
attr interpolationmode  none
attr title  "Latency time of file print, stats"
attr unit  s
statistic UCACnet.owner[234] 	latency:stats
field count 203
field mean 23.561591099124
field stddev 0.6828677603674
field sum 4783.0029931222
field sqrsum 112789.35504222
field min 22.028776711414
field max 25.140633953669
attr interpolationmode  none
attr title  "Latency time of file print, stats"
attr unit  s
statistic UCACnet.owner[235] 	latency:stats
field count 203
field mean 23.460191506294
field stddev 0.71967699637419
field sum 4762.4188757776
field sqrsum 111831.88172471
field min 20.988356564672
field max 25.127553942669
attr interpolationmode  none
attr title  "Latency time of file print, stats"
attr unit  s
statistic UCACnet.owner[236] 	latency:stats
field count 204
field mean 23.517384839635
field stddev 0.67530909733762
field sum 4797.5465072855
field sqrsum 112918.3241004
field min 21.059549322586
field max 24.975016136278
attr interpolationmode  none
attr title  "Latency time of file print, stats"
attr unit  s
statistic UCACnet.owner[237] 	latency:stats
field count 201
field mean 23.573421803839
field stddev 0.63917806334047
field sum 4738.2577825716
field sqrsum 111778.65904321
field min 21.980910726624
field max 25.581992368633
attr interpolationmode  none
attr title  "Latency time of file print, stats"
attr unit  s
statistic UCACnet.owner[238] 	latency:stats
field count 201
field mean 23.570279229151
field stddev 0.67692223280502
field sum 4737.6261250593
field sqrsum 111758.81539282
field min 21.804366394682
field max 25.465788473934
attr interpolationmode  none
attr title  "Latency time of file print, stats"
attr unit  s
statistic UCACnet.owner[239] 	latency:stats
field count 214
field mean 23.551606786761
field stddev 0.68947401535435
field sum 5040.0438523669
field sqrsum 118802.38574998
field min 21.650861830148
field max 25.306276901213
attr interpolationmode  none
attr title  "Latency time of file print, stats"
attr unit  s
statistic UCACnet.owner[240] 	latency:stats
field count 204
field mean 23.545581713155
field stddev 0.64652804302645
field sum 4803.2986694836
field sqrsum 113181.31501263
field min 21.906604846774
field max 25.487681920672
attr interpolationmode  none
attr title  "Latency time of file print, stats"
attr unit  s
statistic UCACnet.owner[241] 	latency:stats
field count 207
field mean 23.550374789182
field stddev 0.65137968900513
field sum 4874.9275813606
field sqrsum 114893.77648401
field min 22.050517233922
field max 25.386703249699
attr interpolationmode  none
attr title  "Latency time of file print, stats"
attr unit  s
statistic UCACnet.owner[242] 	latency:stats
field count 201
field mean 23.496852823713
field stddev 0.69299091315149
field sum 4722.8674175663
field sqrsum 111068.56789761
field min 21.888277156789
field max 25.372578021436
attr interpolationmode  none
attr title  "Latency time of file print, stats"
attr unit  s
statistic UCACnet.owner[243] 	latency:stats
field count 204
field mean 23.586738999011
field stddev 0.64679212265594
field sum 4811.6947557983
field sqrsum 113577.11137806
field min 22.078851353799
field max 25.56101034956
attr interpolationmode  none
attr title  "Latency time of file print, stats"
attr unit  s
statistic UCACnet.owner[244] 	latency:stats
field count 212
field mean 23.494044584851
field stddev 0.67042896041351
field sum 4980.7374519883
field sqrsum 117112.50698554
field min 21.356774361328
field max 25.033075459761
attr interpolationmode  none
attr title  "Latency time of file print, stats"
attr unit  s
statistic UCACnet.owner[245] 	latency:stats
field count 204
field mean 23.498170460267
field stddev 0.71834372298853
field sum 4793.6267738945
field sqrsum 112746.21064986
field min 19.605113275256
field max 25.453973120488
attr interpolationmode  none
attr title  "Latency time of file print, stats"
attr unit  s
statistic UCACnet.owner[246] 	latency:stats
field count 201
field mean 23.537399248766
field stddev 0.68845186503182
field sum 4731.0172490019
field sqrsum 111450.63503665
field min 21.809037205654
field max 24.968111186205
attr interpolationmode  none
attr title  "Latency time of file print, stats"
attr unit  s
statistic UCACnet.owner[247] 	latency:stats
field count 196
field mean 23.521138630381
field stddev 0.67049758289004
field sum 4610.1431715547
field sqrsum 108523.48221073
field min 21.730370251046
field max 25.374551079446
attr interpolationmode  none
attr title  "Latency time of file print, stats"
attr unit  s
statistic UCACnet.owner[248] 	latency:stats
field count 191
field mean 23.502224241651
field stddev 0.69486079523816
field sum 4488.9248301553
field sqrsum 105591.45595193
field min 20.896240117334
field max 25.361250803472
attr interpolationmode  none
attr title  "Latency time of file print, stats"
attr unit  s
statistic UCACnet.owner[249] 	latency:stats
field count 201
field mean 23.499857714582
field stddev 0.62577495607493
field sum 4723.471400631
field sqrsum 111079.22469285
field min 21.601743916548
field max 24.936353524561
attr interpolationmode  none
attr title  "Latency time of file print, stats"
attr unit  s
statistic UCACnet.owner[250] 	latency:stats
field count 203
field mean 23.521907799504
field stddev 0.6422745590227
field sum 4774.9472832992
field sqrsum 112399.19810031
field min 21.951954014489
field max 25.052743733283
attr interpolationmode  none
attr title  "Latency time of file print, stats"
attr unit  s
statistic UCACnet.owner[251] 	latency:stats
field count 209
field mean 23.524244998504
field stddev 0.65443429145005
field sum 4916.5672046874
field sqrsum 115747.61459698
field min 21.70202129761
field max 25.551125123413
attr interpolationmode  none
attr title  "Latency time of file print, stats"
attr unit  s
statistic UCACnet.owner[252] 	latency:stats
field count 209
field mean 23.469179836972
field stddev 1.1317001092693
field sum 4905.0585859271
field sqrsum 115384.09705257
field min 10.44988787853
field max 25.517128707859
attr interpolationmode  none
attr title  "Latency time of file print, stats"
attr unit  s
statistic UCACnet.owner[253] 	latency:stats
field count 202
field mean 23.521783846972
field stddev 0.67969452228628
field sum 4751.4003370884
field sqrsum 111854.27061279
field min 21.256043644601
field max 25.452498936973
attr interpolationmode  none
attr title  "Latency time of file print, stats"
attr unit  s
statistic UCACnet.owner[254] 	latency:stats
field count 208
field mean 23.477978559812
field stddev 0.70985776066207
field sum 4883.419540441
field sqrsum 114757.1261634
[...]
field mean 23.540482303012
field stddev 0.65621079854815
field sum 4708.0964606024
field sqrsum 110916.5533215
field min 21.893272618217
field max 25.101991508822
attr interpolationmode  none
attr title  "Latency time of file print, stats"
attr unit  s
statistic UCACnet.owner[337] 	latency:stats
field count 209
field mean 23.535282685625
field stddev 0.651473989983
field sum 4918.8740812957
field sqrsum 115855.37101709
field min 21.805942275399
field max 25.270826642393
attr interpolationmode  none
attr title  "Latency time of file print, stats"
attr unit  s
statistic UCACnet.owner[338] 	latency:stats
field count 202
field mean 23.517509675915
field stddev 0.78872915411349
field sum 4750.5369545348
field sqrsum 111845.83962345
field min 17.814735939819
field max 25.324083943718
attr interpolationmode  none
attr title  "Latency time of file print, stats"
attr unit  s
statistic UCACnet.owner[339] 	latency:stats
field count 199
field mean 23.576980033266
field stddev 0.6494288121377
field sum 4691.81902662
field sqrsum 110702.43155116
field min 21.808667749142
field max 25.578715829144
attr interpolationmode  none
attr title  "Latency time of file print, stats"
attr unit  s
statistic UCACnet.owner[340] 	latency:stats
field count 201
field mean 23.546986635318
field stddev 0.68647366963515
field sum 4732.9443136988
field sqrsum 111540.82572019
field min 21.740303195699
field max 25.149446207567
attr interpolationmode  none
attr title  "Latency time of file print, stats"
attr unit  s
statistic UCACnet.owner[341] 	latency:stats
field count 202
field mean 23.500464133747
field stddev 0.66633083354365
field sum 4747.0937550169
field sqrsum 111648.14988203
field min 21.716576919345
field max 25.565872898484
attr interpolationmode  none
attr title  "Latency time of file print, stats"
attr unit  s
statistic UCACnet.owner[342] 	latency:stats
field count 202
field mean 23.408220353994
field stddev 1.0048518062109
field sum 4728.4605115067
field sqrsum 110887.80074615
field min 13.000985163125
field max 25.056019280717
attr interpolationmode  none
attr title  "Latency time of file print, stats"
attr unit  s
statistic UCACnet.owner[343] 	latency:stats
field count 200
field mean 23.487553948627
field stddev 0.68830236612758
field sum 4697.5107897254
field sqrsum 110427.31636723
field min 21.924683151757
field max 25.553369230679
attr interpolationmode  none
attr title  "Latency time of file print, stats"
attr unit  s
statistic UCACnet.owner[344] 	latency:stats
field count 208
field mean 23.45384263599
field stddev 0.75089095565752
field sum 4878.3992682859
field sqrsum 114533.92305996
field min 18.636293611002
field max 25.428462091714
attr interpolationmode  none
attr title  "Latency time of file print, stats"
attr unit  s
statistic UCACnet.owner[345] 	latency:stats
field count 203
field mean 23.490094146899
field stddev 0.75605999597011
field sum 4768.4891118204
field sqrsum 112127.72677206
field min 18.05539061742
field max 24.962955453465
attr interpolationmode  none
attr title  "Latency time of file print, stats"
attr unit  s
statistic UCACnet.owner[346] 	latency:stats
field count 203
field mean 23.481176533284
field stddev 1.1538882710285
field sum 4766.6788362567
field sqrsum 112196.1817763
field min 10.314730987801
field max 25.525316816883
attr interpolationmode  none
attr title  "Latency time of file print, stats"
attr unit  s
statistic UCACnet.owner[347] 	latency:stats
field count 204
field mean 23.466503704619
field stddev 0.75389118174807
field sum 4787.1667557422
field sqrsum 112453.44184678
field min 17.784496179983
field max 25.066877791701
attr interpolationmode  none
attr title  "Latency time of file print, stats"
attr unit  s
statistic UCACnet.owner[348] 	latency:stats
field count 205
field mean 23.542408590547
field stddev 0.67100078547479
field sum 4826.1937610621
field sqrsum 113712.07483911
field min 21.829961655593
field max 25.570918106283
attr interpolationmode  none
attr title  "Latency time of file print, stats"
attr unit  s
statistic UCACnet.owner[349] 	latency:stats
field count 204
field mean 23.526715611909
field stddev 0.65279852852641
field sum 4799.4499848295
field sqrsum 113001.80250819
field min 21.3117532576
field max 25.465294161598
attr interpolationmode  none
attr title  "Latency time of file print, stats"
attr unit  s
statistic UCACnet.owner[350] 	latency:stats
field count 205
field mean 23.45398887915
field stddev 0.69655799754923
field sum 4808.0677202258
field sqrsum 112867.34622135
field min 19.438628640577
field max 25.585536972325
attr interpolationmode  none
attr title  "Latency time of file print, stats"
attr unit  s
statistic UCACnet.owner[351] 	latency:stats
field count 200
field mean 23.514351784662
field stddev 0.69225474502537
field sum 4702.8703569324
field sqrsum 110680.31208034
field min 21.286167588554
field max 25.504581294828
attr interpolationmode  none
attr title  "Latency time of file print, stats"
attr unit  s
statistic UCACnet.owner[352] 	latency:stats
field count 191
field mean 23.567854495867
field stddev 0.71537712467769
field sum 4501.4602087106
field sqrsum 106186.99445962
field min 21.732685854185
field max 24.9840311054
attr interpolationmode  none
attr title  "Latency time of file print, stats"
attr unit  s
statistic UCACnet.owner[353] 	latency:stats
field count 203
field mean 23.524756990237
field stddev 0.63546269704197
field sum 4775.5256690181
field sqrsum 112424.65105783
field min 21.896905658311
field max 24.998246539988
attr interpolationmode  none
attr title  "Latency time of file print, stats"
attr unit  s
statistic UCACnet.owner[354] 	latency:stats
field count 197
field mean 23.486693259448
field stddev 0.67787042294702
field sum 4626.8785721113
field sqrsum 108760.14140071
field min 21.280107849683
field max 25.099915378985
attr interpolationmode  none
attr title  "Latency time of file print, stats"
attr unit  s
statistic UCACnet.owner[355] 	latency:stats
field count 204
field mean 23.522222031817
field stddev 0.67126094933394
field sum 4798.5332944906
field sqrsum 112963.63560628
field min 21.942737121572
field max 25.448443255908
attr interpolationmode  none
attr title  "Latency time of file print, stats"
attr unit  s
statistic UCACnet.owner[356] 	latency:stats
field count 199
field mean 23.561651151605
field stddev 0.62949072541042
field sum 4688.7685791693
field sqrsum 110553.58879052
field min 21.4904698863
field max 24.912292516817
attr interpolationmode  none
attr title  "Latency time of file print, stats"
attr unit  s
statistic UCACnet.owner[357] 	latency:stats
field count 203
field mean 23.548377892478
field stddev 0.68514431390311
field sum 4780.3207121731
field sqrsum 112663.62196913
field min 21.533084576325
field max 24.986384483207
attr interpolationmode  none
attr title  "Latency time of file print, stats"
attr unit  s
statistic UCACnet.owner[358] 	latency:stats
field count 206
field mean 23.483560565113
field stddev 1.0725609858024
field sum 4837.6134764133
field sqrsum 113840.21841296
field min 11.254117645558
field max 25.211091861478
attr interpolationmode  none
attr title  "Latency time of file print, stats"
attr unit  s
statistic UCACnet.owner[359] 	latency:stats
field count 208
field mean 23.534994920455
field stddev 0.64138816136049
field sum 4895.2789434546
field sqrsum 115295.52047453
field min 21.841065464255
field max 25.247425453493
attr interpolationmode  none
attr title  "Latency time of file print, stats"
attr unit  s
statistic UCACnet.owner[360] 	latency:stats
field count 204
field mean 23.483744988313
field stddev 0.77407427719102
field sum 4790.6839776158
field sqrsum 112624.83662021
field min 17.662112276492
field max 25.57567652812
attr interpolationmode  none
attr title  "Latency time of file print, stats"
attr unit  s
statistic UCACnet.owner[361] 	latency:stats
field count 204
field mean 23.542810946829
field stddev 0.61922593019647
field sum 4802.7334331531
field sqrsum 113147.68371752
field min 22.037030758651
field max 24.917441076226
attr interpolationmode  none
attr title  "Latency time of file print, stats"
attr unit  s
statistic UCACnet.owner[362] 	latency:stats
field count 203
field mean 23.579963963597
field stddev 0.62751152611277
field sum 4786.7326846101
field sqrsum 112950.52589099
field min 21.913313129391
field max 25.509141075135
attr interpolationmode  none
attr title  "Latency time of file print, stats"
attr unit  s
statistic UCACnet.owner[363] 	latency:stats
field count 202
field mean 23.509690442407
field stddev 1.0097586674523
field sum 4748.9574693663
field sqrsum 111851.46215483
field min 12.692856634056
field max 25.340750260618
attr interpolationmode  none
attr title  "Latency time of file print, stats"
attr unit  s
statistic UCACnet.owner[364] 	latency:stats
field count 207
field mean 23.506522249622
field stddev 0.67507360295121
field sum 4865.8501056717
field sqrsum 114473.09299239
field min 20.998921686961
field max 24.975650774304
attr interpolationmode  none
attr title  "Latency time of file print, stats"
attr unit  s
statistic UCACnet.owner[365] 	latency:stats
field count 205
field mean 23.504386061164
field stddev 0.64178646723874
field sum 4818.3991425387
field sqrsum 113337.5391764
field min 21.617095915649
field max 25.428414463823
attr interpolationmode  none
attr title  "Latency time of file print, stats"
attr unit  s
statistic UCACnet.owner[366] 	latency:stats
field count 203
field mean 23.455754571023
field stddev 0.73558325448003
field sum 4761.5181779176
field sqrsum 111794.300477
field min 19.759004988587
field max 25.481182641838
attr interpolationmode  none
attr title  "Latency time of file print, stats"
attr unit  s
statistic UCACnet.owner[367] 	latency:stats
field count 213
field mean 23.516660093107
field stddev 0.69930339231024
field sum 5009.0485998317
field sqrsum 117899.76666181
field min 21.248891988059
field max 25.532330446519
attr interpolationmode  none
attr title  "Latency time of file print, stats"
attr unit  s
statistic UCACnet.owner[368] 	latency:stats
field count 200
field mean 23.591919581139
field stddev 0.65259222244954
field sum 4718.3839162277
field sqrsum 111400.48334973
field min 21.868773052975
field max 25.548827653264
attr interpolationmode  none
attr title  "Latency time of file print, stats"
attr unit  s
statistic UCACnet.owner[369] 	latency:stats
field count 207
field mean 23.464511632258
field stddev 0.72338830344541
field sum 4857.1539078774
field sqrsum 114078.54224239
field min 20.558007642312
field max 25.43304130059
attr interpolationmode  none
attr title  "Latency time of file print, stats"
attr unit  s
statistic UCACnet.owner[370] 	latency:stats
field count 193
field mean 23.56133217122
field stddev 0.68227833813244
field sum 4547.3371090455
field sqrsum 107230.69683703
field min 21.275193428617
field max 25.576658825755
attr interpolationmode  none
attr title  "Latency time of file print, stats"
attr unit  s
statistic UCACnet.owner[371] 	latency:stats
field count 206
field mean 23.509929660789
field stddev 0.68441455998555
field sum 4843.0455101225
field sqrsum 113955.68606141
field min 21.850045024895
field max 24.947047425324
attr interpolationmode  none
attr title  "Latency time of file print, stats"
attr unit  s
statistic UCACnet.owner[372] 	latency:stats
field count 207
field mean 23.505667286014
field stddev 0.66447450918645
field sum 4865.6731282049
field sqrsum 114461.84810699
field min 21.976205007093
field max 25.533270669427
attr interpolationmode  none
attr title  "Latency time of file print, stats"
attr unit  s
statistic UCACnet.owner[373] 	latency:stats
field count 200
field mean 23.499173285236
field stddev 0.72698596255763
field sum 4699.8346570472
field sqrsum 110547.40222727
field min 21.335666644779
field max 25.093232866828
attr interpolationmode  none
attr title  "Latency time of file print, stats"
attr unit  s
statistic UCACnet.owner[374] 	latency:stats
field count 203
field mean 23.582541907318
field stddev 0.68020317390509
field sum 4787.2560071856
field sqrsum 112989.12603479
field min 21.676107084569
field max 25.588197137627
attr interpolationmode  none
attr title  "Latency time of file print, stats"
attr unit  s
statistic UCACnet.owner[375] 	latency:stats
field count 198
field mean 23.52772512418
field stddev 0.65399696138473
field sum 4658.4895745876
field sqrsum 109687.92147378
field min 21.978153933573
field max 25.080922938227
attr interpolationmode  none
attr title  "Latency time of file print, stats"
attr unit  s
statistic UCACnet.owner[376] 	latency:stats
field count 205
field mean 23.537519112775
field stddev 0.70098125115967
field sum 4825.1914181189
field sqrsum 113673.27566852
field min 21.307267777583
field max 25.155832965795
attr interpolationmode  none
attr title  "Latency time of file print, stats"
attr unit  s
statistic UCACnet.owner[377] 	latency:stats
field count 203
field mean 23.485119638685
field stddev 0.72354183678005
field sum 4767.4792866531
field sqrsum 112070.57100549
field min 21.438393244368
field max 25.480167269363
attr interpolationmode  none
attr title  "Latency time of file print, stats"
attr unit  s
statistic UCACnet.owner[378] 	latency:stats
field count 205
field mean 23.561139641117
field stddev 0.68132645813102
field sum 4830.033626429
field sqrsum 113895.79471507
field min 21.556820732979
field max 25.103768964617
attr interpolationmode  none
attr title  "Latency time of file print, stats"
attr unit  s
statistic UCACnet.owner[379] 	latency:stats
field count 198
field mean 23.524748195346
field stddev 0.65876501828951
field sum 4657.9001426784
field sqrsum 109661.42033139
field min 21.98203511062
field max 24.967066075058
attr interpolationmode  none
attr title  "Latency time of file print, stats"
attr unit  s
statistic UCACnet.owner[380] 	latency:stats
field count 206
field mean 23.554471124901
field stddev 0.62198727936756
field sum 4852.2210517296
field sqrsum 114370.80863062
field min 21.975306633594
field max 25.468831465701
attr interpolationmode  none
attr title  "Latency time of file print, stats"
attr unit  s
statistic UCACnet.owner[381] 	latency:stats
field count 202
field mean 23.525022516772
field stddev 0.72201847729379
field sum 4752.054548388
field sqrsum 111896.97369875
field min 19.096156963532
field max 25.13143890474
attr interpolationmode  none
attr title  "Latency time of file print, stats"
attr unit  s
statistic UCACnet.owner[382] 	latency:stats
field count 213
field mean 23.499988872291
field stddev 0.73429471566938
field sum 5005.4976297979
field sqrsum 117743.44661117
field min 19.028439957825
field max 25.368852628293
attr interpolationmode  none
attr title  "Latency time of file print, stats"
attr unit  s
statistic UCACnet.owner[383] 	latency:stats
field count 209
field mean 23.500199642908
field stddev 0.73348085867785
field sum 4911.5417253677
field sqrsum 115534.11388798
field min 19.407699560882
field max 25.599424628663
attr interpolationmode  none
attr title  "Latency time of file print, stats"
attr unit  s
statistic UCACnet.owner[384] 	latency:stats
field count 202
field mean 23.523285231316
field stddev 0.77983654735795
field sum 4751.7036167258
field sqrsum 111897.91666407
field min 18.20536520718
field max 25.441527307624
attr interpolationmode  none
attr title  "Latency time of file print, stats"
attr unit  s
statistic UCACnet.owner[385] 	latency:stats
field count 206
field mean 23.480783664188
field stddev 0.73799481292877
field sum 4837.0414348227
field sqrsum 113689.17395629
field min 19.313093004022
field max 25.07790044283
attr interpolationmode  none
attr title  "Latency time of file print, stats"
attr unit  s
statistic UCACnet.owner[386] 	latency:stats
field count 207
field mean 23.543619406472
field stddev 0.64442313723452
field sum 4873.5292171398
field sqrsum 114826.0649777
field min 21.720510253256
field max 25.447499994706
attr interpolationmode  none
attr title  "Latency time of file print, stats"
attr unit  s
statistic UCACnet.owner[387] 	latency:stats
field count 199
field mean 23.537642694598
field stddev 0.70599785697811
field sum 4683.9908962251
field sqrsum 110348.79382896
field min 21.268183737363
field max 25.345297547733
attr interpolationmode  none
attr title  "Latency time of file print, stats"
attr unit  s
statistic UCACnet.owner[388] 	latency:stats
field count 210
field mean 23.526315792516
field stddev 0.66820920243685
field sum 4940.5263164283
field sqrsum 116325.70154101
field min 21.835949920767
field max 25.327591235015
attr interpolationmode  none
attr title  "Latency time of file print, stats"
attr unit  s
statistic UCACnet.owner[389] 	latency:stats
field count 203
field mean 23.527806156983
field stddev 0.63602462321979
field sum 4776.1446498676
field sqrsum 112453.92001871
field min 21.579900821687
field max 25.390075347088
attr interpolationmode  none
attr title  "Latency time of file print, stats"
attr unit  s
statistic UCACnet.owner[390] 	latency:stats
field count 209
field mean 23.515331193078
field stddev 0.63309714163619
field sum 4914.7042193532
field sqrsum 115654.26632818
field min 21.601763465372
field max 24.875317273342
attr interpolationmode  none
attr title  "Latency time of file print, stats"
attr unit  s
statistic UCACnet.owner[391] 	latency:stats
field count 199
field mean 23.589399608885
field stddev 0.65442095862791
field sum 4694.2905221682
field sqrsum 110820.29183226
field min 21.879651272846
field max 25.482530308048
attr interpolationmode  none
attr title  "Latency time of file print, stats"
attr unit  s
statistic UCACnet.owner[392] 	latency:stats
field count 201
field mean 23.507337788352
field stddev 0.6994722135321
field sum 4724.9748954587
field sqrsum 111169.43318453
field min 19.511558052611
field max 24.972262013166
attr interpolationmode  none
attr title  "Latency time of file print, stats"
attr unit  s
statistic UCACnet.owner[393] 	latency:stats
field count 208
field mean 23.541426532703
field stddev 0.69704349532243
field sum 4896.6167188022
field sqrsum 115373.9177588
field min 20.988992497492
field max 25.535933648251
attr interpolationmode  none
attr title  "Latency time of file print, stats"
attr unit  s
statistic UCACnet.owner[394] 	latency:stats
field count 203
field mean 23.518993446595
field stddev 0.69413656583718
field sum 4774.3556696588
field sqrsum 112385.36847197
field min 20.188609172778
field max 25.220228631899
attr interpolationmode  none
attr title  "Latency time of file print, stats"
attr unit  s
statistic UCACnet.owner[395] 	latency:stats
field count 205
field mean 23.468660993025
field stddev 0.89662799034639
field sum 4811.0755035701
field sqrsum 113073.50412276
field min 14.594142792058
field max 25.462159602809
attr interpolationmode  none
attr title  "Latency time of file print, stats"
attr unit  s
statistic UCACnet.owner[396] 	latency:stats
field count 203
field mean 23.493610562515
field stddev 0.97564064697931
field sum 4769.2029441906
field sqrsum 112238.07534817
field min 13.221876062856
field max 25.106920442372
attr interpolationmode  none
attr title  "Latency time of file print, stats"
attr unit  s
statistic UCACnet.owner[397] 	latency:stats
field count 206
field mean 23.45698182062
field stddev 1.0015010077073
field sum 4832.1382550477
field sqrsum 113552.99507841
field min 13.070962070851
field max 25.624878132273
attr interpolationmode  none
attr title  "Latency time of file print, stats"
attr unit  s
statistic UCACnet.owner[398] 	latency:stats
field count 212
field mean 23.53083581649
field stddev 0.65711628817061
field sum 4988.537193096
field sqrsum 117475.55983841
field min 20.991475076615
field max 25.068756646323
attr interpolationmode  none
attr title  "Latency time of file print, stats"
attr unit  s
statistic UCACnet.owner[399] 	latency:stats
field count 203
field mean 23.514219458041
field stddev 0.64678492632687
field sum 4773.3865499822
field sqrsum 112326.96170401
field min 21.901985996152
field max 24.994734884329
attr interpolationmode  none
attr title  "Latency time of file print, stats"
attr unit  s
