version 2
run Owner-400-0-20110905-21:04:30-5013
attr configname Owner-400
attr datetime 20110905-21:04:30
attr experiment Owner-400
attr inifile nocrypto.ini
attr iterationvars ""
attr iterationvars2 $repetition=0
attr measurement ""
attr network UCACnet
attr processid 5013
attr repetition 0
attr replication #0
attr resultdir results
attr runnumber 0
attr seedset 0

statistic UCACnet.owner[0] 	latency:stats
field count 191
field mean 23.594029588203
field stddev 0.66312649464615
field sum 4506.4596513468
field sqrsum 106409.09233402
field min 21.538403362194
field max 25.441240452849
attr interpolationmode  none
attr title  "Latency time of file print, stats"
attr unit  s
statistic UCACnet.owner[1] 	latency:stats
field count 197
field mean 23.561871463337
field stddev 0.64841053688993
field sum 4641.6886782774
field sqrsum 109449.27751037
field min 21.995601667925
field max 25.584029121123
attr interpolationmode  none
attr title  "Latency time of file print, stats"
attr unit  s
statistic UCACnet.owner[2] 	latency:stats
field count 199
field mean 23.537074021539
field stddev 0.66671384965234
field sum 4683.8777302862
field sqrsum 110332.78930233
field min 22.120707419163
field max 25.544084220866
attr interpolationmode  none
attr title  "Latency time of file print, stats"
attr unit  s
statistic UCACnet.owner[3] 	latency:stats
field count 199
field mean 23.506133337831
field stddev 0.66481994200055
field sum 4677.7205342284
field sqrsum 110042.63573463
field min 21.752162747242
field max 25.19230503309
attr interpolationmode  none
attr title  "Latency time of file print, stats"
attr unit  s
statistic UCACnet.owner[4] 	latency:stats
field count 207
field mean 23.503205872559
field stddev 0.6954366994032
field sum 4865.1636156196
field sqrsum 114446.57029538
field min 21.416784653735
field max 25.552054892994
attr interpolationmode  none
attr title  "Latency time of file print, stats"
attr unit  s
statistic UCACnet.owner[5] 	latency:stats
field count 202
field mean 23.458189677694
field stddev 0.64728720491983
field sum 4738.5543148942
field sqrsum 111242.1210427
field min 21.333999417317
field max 24.993757773544
attr interpolationmode  none
attr title  "Latency time of file print, stats"
attr unit  s
statistic UCACnet.owner[6] 	latency:stats
field count 203
field mean 23.551598332108
field stddev 0.68319829999073
field sum 4780.9744614179
field sqrsum 112693.87565464
field min 21.347719728815
field max 25.159107453563
attr interpolationmode  none
attr title  "Latency time of file print, stats"
attr unit  s
statistic UCACnet.owner[7] 	latency:stats
field count 196
field mean 23.505063663646
field stddev 0.71433861320022
field sum 4606.9924780747
field sqrsum 108387.15602767
field min 21.777470491627
field max 25.531270669427
attr interpolationmode  none
attr title  "Latency time of file print, stats"
attr unit  s
statistic UCACnet.owner[8] 	latency:stats
field count 196
field mean 23.574102710779
field stddev 0.66276329472458
field sum 4620.5241313127
field sqrsum 109010.36521024
field min 21.783955251671
field max 25.395747308053
attr interpolationmode  none
attr title  "Latency time of file print, stats"
attr unit  s
statistic UCACnet.owner[9] 	latency:stats
field count 212
field mean 23.539865830601
field stddev 0.66084082218113
field sum 4990.4515560875
field sqrsum 117566.70599938
field min 21.928737745584
field max 25.595172235047
attr interpolationmode  none
attr title  "Latency time of file print, stats"
attr unit  s
statistic UCACnet.owner[10] 	latency:stats
field count 196
field mean 23.533123154607
field stddev 0.67661035080561
field sum 4612.492138303
field sqrsum 108635.61684587
field min 21.720303195699
field max 25.377755232491
attr interpolationmode  none
attr title  "Latency time of file print, stats"
attr unit  s
statistic UCACnet.owner[11] 	latency:stats
field count 207
field mean 23.507539316084
field stddev 0.678231070227
field sum 4866.0606384294
field sqrsum 114483.87123356
field min 21.49679547671
field max 25.52638939192
attr interpolationmode  none
attr title  "Latency time of file print, stats"
attr unit  s
statistic UCACnet.owner[12] 	latency:stats
field count 199
field mean 23.526317028654
field stddev 0.63783231560318
field sum 4681.7370887022
field sqrsum 110224.58334606
field min 21.707922207907
field max 25.493962358304
attr interpolationmode  none
attr title  "Latency time of file print, stats"
attr unit  s
statistic UCACnet.owner[13] 	latency:stats
field count 206
field mean 23.462938749322
field stddev 0.67831377954987
field sum 4833.3653823603
field sqrsum 113499.27838404
field min 21.230094300635
field max 25.538323473604
attr interpolationmode  none
attr title  "Latency time of file print, stats"
attr unit  s
statistic UCACnet.owner[14] 	latency:stats
field count 199
field mean 23.505964271067
field stddev 0.67576066392736
field sum 4677.6868899423
field sqrsum 110043.95809626
field min 21.780356470048
field max 25.597007521523
attr interpolationmode  none
attr title  "Latency time of file print, stats"
attr unit  s
statistic UCACnet.owner[15] 	latency:stats
field count 204
field mean 23.459947695237
field stddev 0.98495423820829
field sum 4785.8293298283
field sqrsum 112472.24313093
field min 13.05983900108
field max 25.378001821092
attr interpolationmode  none
attr title  "Latency time of file print, stats"
attr unit  s
statistic UCACnet.owner[16] 	latency:stats
field count 202
field mean 23.52745890118
field stddev 0.66384665513314
field sum 4752.5466980383
field sqrsum 111903.92628272
field min 21.496394048954
field max 25.256033599606
attr interpolationmode  none
attr title  "Latency time of file print, stats"
attr unit  s
statistic UCACnet.owner[17] 	latency:stats
field count 208
field mean 23.5582709993
field stddev 0.7150939241258
field sum 4900.1203678543
field sqrsum 115544.21493441
field min 20.684124283593
field max 25.439758373002
attr interpolationmode  none
attr title  "Latency time of file print, stats"
attr unit  s
statistic UCACnet.owner[18] 	latency:stats
field count 195
field mean 23.545731424627
field stddev 0.69815587885329
field sum 4591.4176278023
field sqrsum 108202.84611898
field min 21.23046384981
field max 25.512550374975
attr interpolationmode  none
attr title  "Latency time of file print, stats"
attr unit  s
statistic UCACnet.owner[19] 	latency:stats
field count 211
field mean 23.528308126735
field stddev 0.65091560726375
field sum 4964.473014741
field sqrsum 116894.62591452
field min 21.891479017234
field max 24.931414192884
attr interpolationmode  none
attr title  "Latency time of file print, stats"
attr unit  s
statistic UCACnet.owner[20] 	latency:stats
field count 199
field mean 23.542406673808
field stddev 0.62015167821295
field sum 4684.9389280878
field sqrsum 110370.88593159
field min 21.639719098467
field max 25.000345286032
attr interpolationmode  none
attr title  "Latency time of file print, stats"
attr unit  s
statistic UCACnet.owner[21] 	latency:stats
field count 207
field mean 23.508044802939
field stddev 0.64222379909002
field sum 4866.1652742083
field sqrsum 114478.99627467
field min 21.847490475001
field max 25.280500679859
attr interpolationmode  none
attr title  "Latency time of file print, stats"
attr unit  s
statistic UCACnet.owner[22] 	latency:stats
field count 207
field mean 23.48220825725
field stddev 0.66319007183391
field sum 4860.8171092507
field sqrsum 114233.32280053
field min 21.481389784709
field max 25.075799967824
attr interpolationmode  none
attr title  "Latency time of file print, stats"
attr unit  s
statistic UCACnet.owner[23] 	latency:stats
field count 198
field mean 23.525575726764
field stddev 0.63830257862821
field sum 4658.0639938992
field sqrsum 109663.90097442
field min 21.852462917212
field max 25.089788013178
attr interpolationmode  none
attr title  "Latency time of file print, stats"
attr unit  s
statistic UCACnet.owner[24] 	latency:stats
field count 202
field mean 23.540110859279
field stddev 0.68225768767492
field sum 4755.1023935744
field sqrsum 112029.198078
field min 21.349556298077
field max 25.437294161598
attr interpolationmode  none
attr title  "Latency time of file print, stats"
attr unit  s
statistic UCACnet.owner[25] 	latency:stats
field count 200
field mean 23.55890134361
field stddev 0.64016561765361
field sum 4711.780268722
field sqrsum 111085.91909518
field min 21.615756036647
field max 24.965736377509
attr interpolationmode  none
attr title  "Latency time of file print, stats"
attr unit  s
statistic UCACnet.owner[26] 	latency:stats
field count 197
field mean 23.478149025291
field stddev 0.68662698609366
field sum 4625.1953579822
field sqrsum 108683.43138292
field min 20.952802586308
field max 25.467526444834
attr interpolationmode  none
attr title  "Latency time of file print, stats"
attr unit  s
statistic UCACnet.owner[27] 	latency:stats
field count 204
field mean 23.512419461968
field stddev 0.68464562645962
field sum 4796.5335702415
field sqrsum 112873.2634126
field min 21.212195923389
field max 25.258040022209
attr interpolationmode  none
attr title  "Latency time of file print, stats"
attr unit  s
statistic UCACnet.owner[28] 	latency:stats
field count 201
field mean 23.4752562194
field stddev 0.94750383764709
field sum 4718.5265000994
field sqrsum 110948.17127233
field min 13.62883213736
field max 24.962196908755
attr interpolationmode  none
attr title  "Latency time of file print, stats"
attr unit  s
statistic UCACnet.owner[29] 	latency:stats
field count 208
field mean 23.497221686587
field stddev 0.64740400720319
field sum 4887.4221108101
field sqrsum 114927.60112698
field min 21.648450747456
field max 25.159091861478
attr interpolationmode  none
attr title  "Latency time of file print, stats"
attr unit  s
statistic UCACnet.owner[30] 	latency:stats
field count 206
field mean 23.508265774238
field stddev 0.92667828613947
field sum 4842.7027494931
field sqrsum 114019.58349315
field min 14.594075430768
field max 25.262329331959
attr interpolationmode  none
attr title  "Latency time of file print, stats"
attr unit  s
statistic UCACnet.owner[31] 	latency:stats
field count 205
field mean 23.576344747028
field stddev 0.68683916642031
field sum 4833.1506731406
field sqrsum 114044.26308456
field min 21.386261626275
field max 25.573375193867
attr interpolationmode  none
attr title  "Latency time of file print, stats"
attr unit  s
statistic UCACnet.owner[32] 	latency:stats
field count 204
field mean 23.463259345456
field stddev 1.1472587053439
field sum 4786.5049064731
field sqrsum 112574.19509389
field min 10.49742980802
field max 25.5389538731
attr interpolationmode  none
attr title  "Latency time of file print, stats"
attr unit  s
statistic UCACnet.owner[33] 	latency:stats
field count 198
field mean 23.5039497588
field stddev 0.66246053533279
field sum 4653.7820522424
field sqrsum 109468.7137746
field min 21.602343482548
field max 25.03411602588
attr interpolationmode  none
attr title  "Latency time of file print, stats"
attr unit  s
statistic UCACnet.owner[34] 	latency:stats
field count 199
field mean 23.542753092735
field stddev 0.66086687581391
field sum 4685.0078654543
field sqrsum 110384.45892937
field min 21.905272618217
field max 25.486378154363
attr interpolationmode  none
attr title  "Latency time of file print, stats"
attr unit  s
statistic UCACnet.owner[35] 	latency:stats
field count 206
field mean 23.503976967588
field stddev 0.67571819869656
field sum 4841.8192553231
field sqrsum 113895.61025057
field min 21.535801271408
field max 24.95340410612
attr interpolationmode  none
attr title  "Latency time of file print, stats"
attr unit  s
statistic UCACnet.owner[36] 	latency:stats
field count 199
field mean 23.514124191689
field stddev 0.66130208486181
field sum 4679.3107141461
field sqrsum 110116.48271252
field min 21.986945988411
field max 25.576051106603
attr interpolationmode  none
attr title  "Latency time of file print, stats"
attr unit  s
statistic UCACnet.owner[37] 	latency:stats
field count 199
field mean 23.466754201368
field stddev 0.81705971549507
field sum 4669.8840860723
field sqrsum 109719.20413932
field min 16.713377155361
field max 24.961961175539
attr interpolationmode  none
attr title  "Latency time of file print, stats"
attr unit  s
statistic UCACnet.owner[38] 	latency:stats
field count 203
field mean 23.457836172764
field stddev 0.64119592442472
field sum 4761.9407430711
field sqrsum 111787.8745225
field min 21.514207148955
field max 25.687879411527
attr interpolationmode  none
attr title  "Latency time of file print, stats"
attr unit  s
statistic UCACnet.owner[39] 	latency:stats
field count 202
field mean 23.462275130773
field stddev 0.65475758218814
field sum 4739.3795764161
field sqrsum 111282.79777682
field min 21.859886163557
field max 24.922839562177
attr interpolationmode  none
attr title  "Latency time of file print, stats"
attr unit  s
statistic UCACnet.owner[40] 	latency:stats
field count 209
field mean 23.478768100352
field stddev 0.66771384595499
field sum 4907.0625329735
field sqrsum 115304.51835587
field min 21.268107849683
field max 24.917453482421
attr interpolationmode  none
attr title  "Latency time of file print, stats"
attr unit  s
statistic UCACnet.owner[41] 	latency:stats
field count 199
field mean 23.526580543792
field stddev 0.66434471445457
field sum 4681.7895282147
field sqrsum 110233.88649675
field min 21.948306456499
field max 25.498595001825
attr interpolationmode  none
attr title  "Latency time of file print, stats"
attr unit  s
statistic UCACnet.owner[42] 	latency:stats
field count 195
field mean 23.516127289703
field stddev 0.65865542421523
field sum 4585.644821492
field sqrsum 107920.76975933
field min 21.52537573067
field max 25.572778385558
attr interpolationmode  none
attr title  "Latency time of file print, stats"
attr unit  s
statistic UCACnet.owner[43] 	latency:stats
field count 209
field mean 23.524198000492
field stddev 0.7025751866293
field sum 4916.5573821028
field sqrsum 115760.74061108
field min 21.160059161455
field max 25.461788473934
attr interpolationmode  none
attr title  "Latency time of file print, stats"
attr unit  s
statistic UCACnet.owner[44] 	latency:stats
field count 199
field mean 23.521782467644
field stddev 0.7262535835657
field sum 4680.8347110611
field sqrsum 110206.00980557
field min 21.590775428894
field max 25.411889296845
attr interpolationmode  none
attr title  "Latency time of file print, stats"
attr unit  s
statistic UCACnet.owner[45] 	latency:stats
field count 203
field mean 23.582398775087
field stddev 0.6385308986904
field sum 4787.2269513427
field sqrsum 112976.65477854
field min 21.763498000927
field max 25.437038377665
attr interpolationmode  none
attr title  "Latency time of file print, stats"
attr unit  s
statistic UCACnet.owner[46] 	latency:stats
field count 201
field mean 23.552078643621
field stddev 0.67895844187174
field sum 4733.9678073678
field sqrsum 111586.97900865
field min 21.934022273098
field max 25.413784060896
attr interpolationmode  none
attr title  "Latency time of file print, stats"
attr unit  s
statistic UCACnet.owner[47] 	latency:stats
field count 207
field mean 23.54724270702
field stddev 0.6784930102725
field sum 4874.2792403531
field sqrsum 114870.66896397
field min 21.581446740159
field max 25.293561625765
attr interpolationmode  none
attr title  "Latency time of file print, stats"
attr unit  s
statistic UCACnet.owner[48] 	latency:stats
field count 208
field mean 23.463086017947
field stddev 0.83152652227744
field sum 4880.321891733
field sqrsum 114650.53966695
field min 15.95694159763
field max 25.064774932635
attr interpolationmode  none
attr title  "Latency time of file print, stats"
attr unit  s
statistic UCACnet.owner[49] 	latency:stats
field count 207
field mean 23.530848347386
field stddev 0.71504088863237
field sum 4870.8856079088
field sqrsum 114721.39495248
field min 21.018635919464
field max 25.591662119205
attr interpolationmode  none
attr title  "Latency time of file print, stats"
attr unit  s
statistic UCACnet.owner[50] 	latency:stats
field count 201
field mean 23.509826947627
field stddev 0.66904559696042
field sum 4725.475216473
field sqrsum 111184.62898674
field min 21.4152573599
field max 25.639976672192
attr interpolationmode  none
attr title  "Latency time of file print, stats"
attr unit  s
statistic UCACnet.owner[51] 	latency:stats
field count 205
field mean 23.559152362038
field stddev 0.66205657077347
field sum 4829.6262342178
field sqrsum 113871.31735983
field min 22.108714667612
field max 25.591267427371
attr interpolationmode  none
attr title  "Latency time of file print, stats"
attr unit  s
statistic UCACnet.owner[52] 	latency:stats
field count 204
field mean 23.46950045628
field stddev 0.80385740004638
field sum 4787.7780930811
field sqrsum 112497.93604421
field min 16.91638888701
field max 25.448697208664
attr interpolationmode  none
attr title  "Latency time of file print, stats"
attr unit  s
statistic UCACnet.owner[53] 	latency:stats
field count 196
field mean 23.507501823194
field stddev 0.69236478032153
field sum 4607.470357346
field sqrsum 108403.59477848
field min 21.037549322586
field max 25.01345513209
attr interpolationmode  none
attr title  "Latency time of file print, stats"
attr unit  s
statistic UCACnet.owner[54] 	latency:stats
field count 207
field mean 23.516501669934
field stddev 0.68842616433075
field sum 4867.9158456764
field sqrsum 114573.9808142
field min 21.6692113176
field max 25.367805675657
attr interpolationmode  none
attr title  "Latency time of file print, stats"
attr unit  s
statistic UCACnet.owner[55] 	latency:stats
field count 205
field mean 23.52258050553
field stddev 0.63663875545335
field sum 4822.1290036336
field sqrsum 113511.60071263
field min 21.943627813668
field max 25.013837281298
attr interpolationmode  none
attr title  "Latency time of file print, stats"
attr unit  s
statistic UCACnet.owner[56] 	latency:stats
field count 199
field mean 23.536675688691
field stddev 0.67261914948395
field sum 4683.7984620495
field sqrsum 110330.62386346
field min 21.413776629715
field max 25.07909542998
attr interpolationmode  none
attr title  "Latency time of file print, stats"
attr unit  s
statistic UCACnet.owner[57] 	latency:stats
field count 204
field mean 23.513483234524
field stddev 0.88935045795325
field sum 4796.750579843
field sqrsum 112948.87601946
field min 15.524224085684
field max 25.587872898484
attr interpolationmode  none
attr title  "Latency time of file print, stats"
attr unit  s
statistic UCACnet.owner[58] 	latency:stats
field count 211
field mean 23.499119538102
field stddev 0.68425013470181
field sum 4958.3142225396
field sqrsum 116614.34025477
field min 21.624665736567
field max 25.31926300361
attr interpolationmode  none
attr title  "Latency time of file print, stats"
attr unit  s
statistic UCACnet.owner[59] 	latency:stats
field count 207
field mean 23.560725778031
field stddev 0.65227704333091
field sum 4877.0702360524
field sqrsum 114994.96029213
field min 21.914996729924
field max 24.948428416055
attr interpolationmode  none
attr title  "Latency time of file print, stats"
attr unit  s
statistic UCACnet.owner[60] 	latency:stats
field count 204
field mean 23.507440993895
field stddev 0.71399021709766
field sum 4795.5179627547
field sqrsum 112833.84129673
field min 20.412882170485
field max 25.468093122976
attr interpolationmode  none
attr title  "Latency time of file print, stats"
attr unit  s
statistic UCACnet.owner[61] 	latency:stats
field count 205
field mean 23.544617467817
field stddev 0.8080053636882
field sum 4826.6465809024
field sqrsum 113774.73342391
field min 18.207652871706
field max 25.533141075135
attr interpolationmode  none
attr title  "Latency time of file print, stats"
attr unit  s
statistic UCACnet.owner[62] 	latency:stats
field count 204
field mean 23.527209544051
field stddev 0.64105897933837
field sum 4799.5507469864
field sqrsum 113003.4603345
field min 22.017738112331
field max 25.540637167917
attr interpolationmode  none
attr title  "Latency time of file print, stats"
attr unit  s
statistic UCACnet.owner[63] 	latency:stats
field count 202
field mean 23.49561123547
field stddev 0.64159363341204
field sum 4746.1134695649
field sqrsum 111595.5770808
field min 21.936786466074
field max 25.578603134867
attr interpolationmode  none
attr title  "Latency time of file print, stats"
attr unit  s
statistic UCACnet.owner[64] 	latency:stats
field count 200
field mean 23.54014443546
field stddev 0.70717667434526
field sum 4708.028887092
field sqrsum 110927.19967936
field min 21.313382747861
field max 25.554601915249
attr interpolationmode  none
attr title  "Latency time of file print, stats"
attr unit  s
statistic UCACnet.owner[65] 	latency:stats
field count 206
field mean 23.562482550194
field stddev 0.69534947009487
field sum 4853.8714053399
field sqrsum 114468.38002075
field min 19.189200784645
field max 25.436613916805
attr interpolationmode  none
attr title  "Latency time of file print, stats"
attr unit  s
statistic UCACnet.owner[66] 	latency:stats
field count 201
field mean 23.621699081213
field stddev 0.64259476329555
field sum 4747.9615153238
field sqrsum 112237.50377012
field min 22.102848025062
field max 25.406443255908
attr interpolationmode  none
attr title  "Latency time of file print, stats"
attr unit  s
statistic UCACnet.owner[67] 	latency:stats
field count 203
field mean 23.492379228823
field stddev 0.79691698504473
field sum 4768.9529834512
field sqrsum 112162.33750124
field min 16.570905419088
field max 25.477588931035
attr interpolationmode  none
attr title  "Latency time of file print, stats"
attr unit  s
statistic UCACnet.owner[68] 	latency:stats
field count 210
field mean 23.518955269026
field stddev 1.1162565835857
field sum 4938.9806064954
field sqrsum 116420.08396967
field min 10.304
field max 24.985706471013
attr interpolationmode  none
attr title  "Latency time of file print, stats"
attr unit  s
statistic UCACnet.owner[69] 	latency:stats
field count 207
field mean 23.555474630449
field stddev 0.64456359562823
field sum 4875.9832485029
field sqrsum 114941.68492774
field min 21.725977585243
field max 25.496695476866
attr interpolationmode  none
attr title  "Latency time of file print, stats"
attr unit  s
statistic UCACnet.owner[70] 	latency:stats
field count 205
field mean 23.575838613516
field stddev 0.66896036133044
field sum 4833.0469157708
field sqrsum 114034.42572263
field min 22.153207614786
field max 25.566190216484
attr interpolationmode  none
attr title  "Latency time of file print, stats"
attr unit  s
statistic UCACnet.owner[71] 	latency:stats
field count 204
field mean 23.511440633636
field stddev 0.80330843582766
field sum 4796.3338892618
field sqrsum 112899.71629842
field min 17.112320797551
field max 25.033034473032
attr interpolationmode  none
attr title  "Latency time of file print, stats"
attr unit  s
statistic UCACnet.owner[72] 	latency:stats
field count 200
field mean 23.520969577758
field stddev 0.66448142526078
field sum 4704.1939155516
field sqrsum 110735.0675529
field min 21.629743916548
field max 25.257590043559
attr interpolationmode  none
attr title  "Latency time of file print, stats"
attr unit  s
statistic UCACnet.owner[73] 	latency:stats
field count 197
field mean 23.496344093642
field stddev 0.72928217030794
field sum 4628.7797864474
field sqrsum 108863.64568291
field min 19.361266371262
field max 25.33075987643
attr interpolationmode  none
attr title  "Latency time of file print, stats"
attr unit  s
statistic UCACnet.owner[74] 	latency:stats
field count 206
field mean 23.558341498786
field stddev 0.66077647375171
field sum 4853.0183487498
field sqrsum 114418.57179712
field min 21.882969427924
field max 25.35047656869
attr interpolationmode  none
attr title  "Latency time of file print, stats"
attr unit  s
statistic UCACnet.owner[75] 	latency:stats
field count 197
field mean 23.535839135164
field stddev 0.66586857474181
field sum 4636.5603096274
field sqrsum 109212.24025581
field min 21.69513985616
field max 25.638655438473
attr interpolationmode  none
attr title  "Latency time of file print, stats"
attr unit  s
statistic UCACnet.owner[76] 	latency:stats
field count 200
field mean 23.561450167237
field stddev 0.6594661285325
field sum 4712.2900334474
field sqrsum 111114.931016
field min 21.931106896763
field max 25.635409341661
attr interpolationmode  none
attr title  "Latency time of file print, stats"
attr unit  s
statistic UCACnet.owner[77] 	latency:stats
field count 203
field mean 23.482528694999
field stddev 0.68592726911292
field sum 4766.9533250848
field sqrsum 112035.15848016
field min 21.010693054537
field max 25.222350882703
attr interpolationmode  none
attr title  "Latency time of file print, stats"
attr unit  s
statistic UCACnet.owner[78] 	latency:stats
field count 200
field mean 23.517804694607
field stddev 0.62822171249859
field sum 4703.5609389213
field sqrsum 110695.96537222
field min 21.592895762953
field max 25.534992252141
attr interpolationmode  none
attr title  "Latency time of file print, stats"
attr unit  s
statistic UCACnet.owner[79] 	latency:stats
field count 209
field mean 23.53243722874
field stddev 0.70536434307222
field sum 4918.2793808066
field sqrsum 115842.58888438
field min 21.573654525742
field max 25.494889646532
attr interpolationmode  none
attr title  "Latency time of file print, stats"
attr unit  s
statistic UCACnet.owner[80] 	latency:stats
field count 201
field mean 23.507664396447
field stddev 0.65767284054561
field sum 4725.0405436859
field sqrsum 111161.17407361
field min 21.611407444513
field max 25.139533187423
attr interpolationmode  none
attr title  "Latency time of file print, stats"
attr unit  s
statistic UCACnet.owner[81] 	latency:stats
field count 198
field mean 23.505459950223
field stddev 0.70174189370943
field sum 4654.0810701441
field sqrsum 109493.32721138
field min 21.376783937901
field max 25.645090121584
attr interpolationmode  none
attr title  "Latency time of file print, stats"
attr unit  s
statistic UCACnet.owner[82] 	latency:stats
field count 201
field mean 23.557958807206
field stddev 0.63976609279133
field sum 4735.1497202484
field sqrsum 111632.32218626
field min 21.454352778693
field max 25.566207620778
attr interpolationmode  none
attr title  "Latency time of file print, stats"
attr unit  s
statistic UCACnet.owner[83] 	latency:stats
field count 209
field mean 23.543150322391
field stddev 0.66315739820214
field sum 4920.5184173797
field sqrsum 115935.9785333
field min 22.00112502573
field max 25.597739394068
attr interpolationmode  none
attr title  "Latency time of file print, stats"
attr unit  s
statistic UCACnet.owner[84] 	latency:stats
field count 198
field mean 23.551462673426
field stddev 0.67801842531672
field sum 4663.1896093384
field sqrsum 109915.4986935
field min 21.469847404038
field max 25.400188388794
attr interpolationmode  none
attr title  "Latency time of file print, stats"
attr unit  s
statistic UCACnet.owner[85] 	latency:stats
field count 200
field mean 23.499813879145
field stddev 0.90761998932207
field sum 4699.9627758291
field sqrsum 110612.18150585
field min 15.220073434259
field max 25.465182641838
attr interpolationmode  none
attr title  "Latency time of file print, stats"
attr unit  s
statistic UCACnet.owner[86] 	latency:stats
field count 205
field mean 23.493497654979
field stddev 0.96150393345289
field sum 4816.1670192707
field sqrsum 113337.20449529
field min 13.204532787347
field max 25.001595629979
attr interpolationmode  none
attr title  "Latency time of file print, stats"
attr unit  s
statistic UCACnet.owner[87] 	latency:stats
field count 204
field mean 23.484879597411
field stddev 0.71479628891296
field sum 4790.9154378718
field sqrsum 112617.79176793
field min 21.397800030114
field max 25.007945872968
attr interpolationmode  none
attr title  "Latency time of file print, stats"
attr unit  s
statistic UCACnet.owner[88] 	latency:stats
field count 205
field mean 23.582170670462
field stddev 0.6858439747085
field sum 4834.3449874448
field sqrsum 114100.30649318
field min 21.570681805364
field max 25.280826642393
attr interpolationmode  none
attr title  "Latency time of file print, stats"
attr unit  s
statistic UCACnet.owner[89] 	latency:stats
field count 202
field mean 23.549404818531
field stddev 0.65701014937045
field sum 4756.9797733433
field sqrsum 112110.80652564
field min 21.977186697577
field max 24.900488377341
attr interpolationmode  none
attr title  "Latency time of file print, stats"
attr unit  s
statistic UCACnet.owner[90] 	latency:stats
field count 194
field mean 23.512982412818
field stddev 0.7029555438364
field sum 4561.5185880867
field sqrsum 107350.27661127
field min 21.254183737363
field max 25.328653377958
attr interpolationmode  none
attr title  "Latency time of file print, stats"
attr unit  s
statistic UCACnet.owner[91] 	latency:stats
field count 205
field mean 23.499405595105
field stddev 0.79537766506419
field sum 4817.3781469965
field sqrsum 113334.5786098
field min 17.687425031832
field max 25.055681112986
attr interpolationmode  none
attr title  "Latency time of file print, stats"
attr unit  s
statistic UCACnet.owner[92] 	latency:stats
field count 205
field mean 23.500842402726
field stddev 0.72384492739252
field sum 4817.6726925587
field sqrsum 113326.25279744
field min 19.007618631183
field max 25.07394333703
attr interpolationmode  none
attr title  "Latency time of file print, stats"
attr unit  s
statistic UCACnet.owner[93] 	latency:stats
field count 199
field mean 23.548447490026
field stddev 0.69121466401075
field sum 4686.1410505151
field sqrsum 110445.94644583
field min 21.838862173342
field max 25.376075347088
attr interpolationmode  none
attr title  "Latency time of file print, stats"
attr unit  s
statistic UCACnet.owner[94] 	latency:stats
field count 200
field mean 23.48728028982
field stddev 0.84800042266015
field sum 4697.4560579641
field sqrsum 110473.56892117
field min 16.357398807726
field max 25.426653336581
attr interpolationmode  none
attr title  "Latency time of file print, stats"
attr unit  s
statistic UCACnet.owner[95] 	latency:stats
field count 202
field mean 23.567274684441
field stddev 0.68639745488698
field sum 4760.5894862571
field sqrsum 112288.81951717
field min 21.381922251491
field max 25.613536972325
attr interpolationmode  none
attr title  "Latency time of file print, stats"
attr unit  s
statistic UCACnet.owner[96] 	latency:stats
field count 209
field mean 23.543181818934
field stddev 0.64701668554956
field sum 4920.5250001572
field sqrsum 115931.88988632
field min 21.568066049184
field max 25.085232866828
attr interpolationmode  none
attr title  "Latency time of file print, stats"
attr unit  s
statistic UCACnet.owner[97] 	latency:stats
field count 209
field mean 23.49924730221
field stddev 0.68459099076658
field sum 4911.3426861618
field sqrsum 115510.33865154
field min 21.582079568328
field max 25.540066781738
attr interpolationmode  none
attr title  "Latency time of file print, stats"
attr unit  s
statistic UCACnet.owner[98] 	latency:stats
field count 207
field mean 23.523834692759
field stddev 0.6543805601256
field sum 4869.4337814012
field sqrsum 114635.96738802
field min 21.719481969398
field max 25.589863877087
attr interpolationmode  none
attr title  "Latency time of file print, stats"
attr unit  s
statistic UCACnet.owner[99] 	latency:stats
field count 198
field mean 23.574415557338
field stddev 0.66728200614314
field sum 4667.7342803529
field sqrsum 110126.82489559
field min 21.73856011897
field max 25.237618252602
attr interpolationmode  none
attr title  "Latency time of file print, stats"
attr unit  s
statistic UCACnet.owner[100] 	latency:stats
field count 201
field mean 23.521291877829
field stddev 0.67236795276593
field sum 4727.7796674435
field sqrsum 111293.90122478
field min 21.337700773311
field max 24.979697466944
attr interpolationmode  none
attr title  "Latency time of file print, stats"
attr unit  s
statistic UCACnet.owner[101] 	latency:stats
field count 203
field mean 23.474570130674
field stddev 1.060018202931
field sum 4765.3377365268
field sqrsum 112091.22988773
field min 11.75785412788
field max 25.322771294715
attr interpolationmode  none
attr title  "Latency time of file print, stats"
attr unit  s
statistic UCACnet.owner[102] 	latency:stats
field count 210
field mean 23.564307121878
field stddev 0.67882087802294
field sum 4948.5044955944
field sqrsum 116704.38646513
field min 21.71802129761
field max 25.508093479469
attr interpolationmode  none
attr title  "Latency time of file print, stats"
attr unit  s
statistic UCACnet.owner[103] 	latency:stats
field count 204
field mean 23.510038993469
field stddev 0.67474304844818
field sum 4796.0479546677
field sqrsum 112847.69589962
field min 21.353369399238
field max 25.100437121265
attr interpolationmode  none
attr title  "Latency time of file print, stats"
attr unit  s
statistic UCACnet.owner[104] 	latency:stats
field count 215
field mean 23.485623370633
field stddev 0.674936467128
field sum 5049.4090246862
field sqrsum 118686.00399427
field min 21.859324786237
field max 25.524317070384
attr interpolationmode  none
attr title  "Latency time of file print, stats"
attr unit  s
statistic UCACnet.owner[105] 	latency:stats
field count 213
field mean 23.556930959282
field stddev 0.64077129058733
field sum 5017.626294327
field sqrsum 118286.92081847
field min 21.801917448169
field max 25.536330446519
attr interpolationmode  none
attr title  "Latency time of file print, stats"
attr unit  s
statistic UCACnet.owner[106] 	latency:stats
field count 202
field mean 23.505941556348
field stddev 0.917580862408
field sum 4748.2001943824
field sqrsum 111780.14914945
field min 15.32533461045
field max 25.467288529699
attr interpolationmode  none
attr title  "Latency time of file print, stats"
attr unit  s
statistic UCACnet.owner[107] 	latency:stats
field count 197
field mean 23.502161265529
field stddev 0.66474454519431
field sum 4629.9257693093
field sqrsum 108899.87159857
field min 21.818754552311
field max 25.308750260618
attr interpolationmode  none
attr title  "Latency time of file print, stats"
attr unit  s
statistic UCACnet.owner[108] 	latency:stats
field count 193
field mean 23.462324550464
field stddev 0.74511216626057
field sum 4528.2286382395
field sqrsum 106349.36684002
field min 18.952670504255
field max 24.942529679034
attr interpolationmode  none
attr title  "Latency time of file print, stats"
attr unit  s
statistic UCACnet.owner[109] 	latency:stats
field count 209
field mean 23.534283933259
field stddev 0.6834141702909
field sum 4918.6653420511
field sqrsum 115854.41415756
field min 22.103841552402
field max 25.59771444802
attr interpolationmode  none
attr title  "Latency time of file print, stats"
attr unit  s
statistic UCACnet.owner[110] 	latency:stats
field count 198
field mean 23.474729306469
field stddev 0.81620815834449
field sum 4647.9964026809
field sqrsum 109241.69793466
field min 17.464550237754
field max 25.533336266418
attr interpolationmode  none
attr title  "Latency time of file print, stats"
attr unit  s
statistic UCACnet.owner[111] 	latency:stats
field count 201
field mean 23.49651983007
field stddev 0.67339573090817
field sum 4722.800485844
field sqrsum 111060.06763118
field min 21.453364447803
field max 25.595867362337
attr interpolationmode  none
attr title  "Latency time of file print, stats"
attr unit  s
statistic UCACnet.owner[112] 	latency:stats
field count 198
field mean 23.558342793013
field stddev 0.59783487807292
field sum 4664.5518730167
field sqrsum 109959.52108898
field min 21.528803816607
field max 24.804299672444
attr interpolationmode  none
attr title  "Latency time of file print, stats"
attr unit  s
statistic UCACnet.owner[113] 	latency:stats
field count 206
field mean 23.549267641789
field stddev 0.70000428362788
field sum 4851.1491342085
field sqrsum 114341.46056111
field min 21.815876958633
field max 25.52188756988
attr interpolationmode  none
attr title  "Latency time of file print, stats"
attr unit  s
statistic UCACnet.owner[114] 	latency:stats
field count 202
field mean 23.514926311433
field stddev 0.72448689333452
field sum 4750.0151149094
field sqrsum 111801.75653827
field min 20.104880359338
field max 25.638297674456
attr interpolationmode  none
attr title  "Latency time of file print, stats"
attr unit  s
statistic UCACnet.owner[115] 	latency:stats
field count 205
field mean 23.485819517174
field stddev 0.6632254429428
field sum 4814.5930010207
field sqrsum 113164.39534021
field min 21.945895668779
field max 25.516827653264
attr interpolationmode  none
attr title  "Latency time of file print, stats"
attr unit  s
statistic UCACnet.owner[116] 	latency:stats
field count 201
field mean 23.506109236457
field stddev 0.63945527314328
field sum 4724.7279565278
field sqrsum 111141.75206795
field min 21.580193507481
field max 25.225113462776
attr interpolationmode  none
attr title  "Latency time of file print, stats"
attr unit  s
statistic UCACnet.owner[117] 	latency:stats
field count 202
field mean 23.553342169126
field stddev 0.67384192385265
field sum 4757.7751181634
field sqrsum 112152.77197246
field min 21.872190997519
field max 25.42048834243
attr interpolationmode  none
attr title  "Latency time of file print, stats"
attr unit  s
statistic UCACnet.owner[118] 	latency:stats
field count 197
field mean 23.528731014102
field stddev 0.69054623739293
field sum 4635.1600097781
field sqrsum 109152.89648216
field min 19.978915607221
field max 25.469804368514
attr interpolationmode  none
attr title  "Latency time of file print, stats"
attr unit  s
statistic UCACnet.owner[119] 	latency:stats
field count 197
field mean 23.5546684461
field stddev 0.67332303472461
field sum 4640.2696838818
field sqrsum 109388.87323051
field min 21.7214834948
field max 25.347316543023
attr interpolationmode  none
attr title  "Latency time of file print, stats"
attr unit  s
statistic UCACnet.owner[120] 	latency:stats
field count 209
field mean 23.450477759984
field stddev 0.80798372665206
field sum 4901.1498518367
field sqrsum 115070.09584098
field min 17.400411130549
field max 25.581146732659
attr interpolationmode  none
attr title  "Latency time of file print, stats"
attr unit  s
statistic UCACnet.owner[121] 	latency:stats
field count 206
field mean 23.52084995374
field stddev 0.66063602245466
field sum 4845.2950904705
field sqrsum 114054.92899515
field min 21.895679445673
field max 25.182520326446
attr interpolationmode  none
attr title  "Latency time of file print, stats"
attr unit  s
statistic UCACnet.owner[122] 	latency:stats
field count 200
field mean 23.482319707532
field stddev 0.86457717497693
field sum 4696.4639415064
field sqrsum 110432.61901396
field min 15.636131594086
field max 25.096463116612
attr interpolationmode  none
attr title  "Latency time of file print, stats"
attr unit  s
statistic UCACnet.owner[123] 	latency:stats
field count 205
field mean 23.496543094466
field stddev 0.67906769243164
field sum 4816.7913343655
field sqrsum 113272.01628287
field min 21.448974012035
field max 25.613223903847
attr interpolationmode  none
attr title  "Latency time of file print, stats"
attr unit  s
statistic UCACnet.owner[124] 	latency:stats
field count 205
field mean 23.487910189004
field stddev 0.68949749137041
field sum 4815.0215887458
field sqrsum 113191.77761986
field min 21.693747645803
field max 24.931986121014
attr interpolationmode  none
attr title  "Latency time of file print, stats"
attr unit  s
statistic UCACnet.owner[125] 	latency:stats
field count 199
field mean 23.512354366557
field stddev 0.74689057721181
field sum 4678.9585189449
field sqrsum 110123.78417965
field min 21.250167588554
field max 25.504871032742
attr interpolationmode  none
attr title  "Latency time of file print, stats"
attr unit  s
statistic UCACnet.owner[126] 	latency:stats
field count 209
field mean 23.500569578133
field stddev 0.81079044174324
field sum 4911.6190418297
field sqrsum 115562.58031101
field min 16.664562999489
field max 24.946392556876
attr interpolationmode  none
attr title  "Latency time of file print, stats"
attr unit  s
statistic UCACnet.owner[127] 	latency:stats
field count 204
field mean 23.522915034147
field stddev 0.64698901778369
field sum 4798.674666966
field sqrsum 112963.79120975
field min 21.498230263748
field max 25.513384398729
attr interpolationmode  none
attr title  "Latency time of file print, stats"
attr unit  s
statistic UCACnet.owner[128] 	latency:stats
field count 198
field mean 23.454227129656
field stddev 0.74306909150789
field sum 4643.936971672
field sqrsum 109028.72638933
field min 18.508879726938
field max 25.359080281542
attr interpolationmode  none
attr title  "Latency time of file print, stats"
attr unit  s
statistic UCACnet.owner[129] 	latency:stats
field count 206
field mean 23.559483698441
field stddev 0.68228683938679
field sum 4853.2536418789
field sqrsum 114435.58070314
field min 21.884488280447
field max 25.513148051771
attr interpolationmode  none
attr title  "Latency time of file print, stats"
attr unit  s
statistic UCACnet.owner[130] 	latency:stats
field count 200
field mean 23.553668382187
field stddev 0.6663892875103
field sum 4710.7336764374
field sqrsum 111043.42971342
field min 21.875306024416
field max 25.401596140066
attr interpolationmode  none
attr title  "Latency time of file print, stats"
attr unit  s
statistic UCACnet.owner[131] 	latency:stats
field count 209
field mean 23.493536526263
field stddev 0.66112821833909
field sum 4910.1491339889
field sqrsum 115447.68285715
field min 21.416029728568
field max 24.9304388031
attr interpolationmode  none
attr title  "Latency time of file print, stats"
attr unit  s
statistic UCACnet.owner[132] 	latency:stats
field count 207
field mean 23.534701073233
field stddev 0.6826374403701
field sum 4871.6831221593
field sqrsum 114749.60074179
field min 21.606899464746
field max 25.596197137627
attr interpolationmode  none
attr title  "Latency time of file print, stats"
attr unit  s
statistic UCACnet.owner[133] 	latency:stats
field count 211
field mean 23.441242544236
field stddev 1.1663555734489
field sum 4946.1021768339
field sqrsum 116228.46169372
field min 9.739039907702
field max 25.155103456475
attr interpolationmode  none
attr title  "Latency time of file print, stats"
attr unit  s
statistic UCACnet.owner[134] 	latency:stats
field count 207
field mean 23.456867749268
field stddev 0.88411824181135
field sum 4855.5716240985
field sqrsum 114057.52443707
field min 15.084236876761
field max 25.061247151513
attr interpolationmode  none
attr title  "Latency time of file print, stats"
attr unit  s
statistic UCACnet.owner[135] 	latency:stats
field count 208
field mean 23.541983686127
field stddev 0.66273075298812
field sum 4896.7326067145
field sqrsum 115369.71603715
field min 21.788324665717
field max 25.232886308397
attr interpolationmode  none
attr title  "Latency time of file print, stats"
attr unit  s
statistic UCACnet.owner[136] 	latency:stats
field count 205
field mean 23.543572527275
field stddev 0.70985391054117
field sum 4826.4323680914
field sqrsum 113734.25459131
field min 21.680770598211
field max 25.369655378896
attr interpolationmode  none
attr title  "Latency time of file print, stats"
attr unit  s
statistic UCACnet.owner[137] 	latency:stats
field count 198
field mean 23.580489516176
field stddev 0.63862254355482
field sum 4668.9369242028
field sqrsum 110176.16242722
field min 21.61301763496
field max 24.97292471436
attr interpolationmode  none
attr title  "Latency time of file print, stats"
attr unit  s
statistic UCACnet.owner[138] 	latency:stats
field count 205
field mean 23.483638678732
field stddev 0.89642176708762
field sum 4814.14592914
field sqrsum 113217.59223145
field min 15.079337938921
field max 25.085252880691
attr interpolationmode  none
attr title  "Latency time of file print, stats"
attr unit  s
statistic UCACnet.owner[139] 	latency:stats
field count 202
field mean 23.501525725315
field stddev 0.6563755897635
field sum 4747.3081965137
field sqrsum 111655.58231825
field min 21.403325518352
field max 25.579933648251
attr interpolationmode  none
attr title  "Latency time of file print, stats"
attr unit  s
statistic UCACnet.owner[140] 	latency:stats
field count 204
field mean 23.481037370165
field stddev 0.65646029766428
field sum 4790.1316235136
field sqrsum 112564.74050458
field min 21.916242427463
field max 25.360115307292
attr interpolationmode  none
attr title  "Latency time of file print, stats"
attr unit  s
statistic UCACnet.owner[141] 	latency:stats
field count 206
field mean 23.487134748926
field stddev 0.68735488907609
field sum 4838.3497582787
field sqrsum 113735.82636755
field min 21.581095915649
field max 24.872944714022
attr interpolationmode  none
attr title  "Latency time of file print, stats"
attr unit  s
statistic UCACnet.owner[142] 	latency:stats
field count 206
field mean 23.534753766316
field stddev 0.69478624556853
field sum 4848.159275861
field sqrsum 114199.19400231
field min 20.997260602865
field max 25.473499994706
attr interpolationmode  none
attr title  "Latency time of file print, stats"
attr unit  s
statistic UCACnet.owner[143] 	latency:stats
field count 196
field mean 23.534706449525
field stddev 0.660318761076
field sum 4612.8024641068
field sqrsum 108645.97597131
field min 21.918619502165
field max 25.355576067188
attr interpolationmode  none
attr title  "Latency time of file print, stats"
attr unit  s
statistic UCACnet.owner[144] 	latency:stats
field count 205
field mean 23.543463096711
field stddev 0.67075012980587
field sum 4826.4099348258
field sqrsum 113722.18496044
field min 21.200732977013
field max 25.445698059119
attr interpolationmode  none
attr title  "Latency time of file print, stats"
attr unit  s
statistic UCACnet.owner[145] 	latency:stats
field count 216
field mean 23.516590847397
field stddev 0.98739494249429
field sum 5079.5836230377
field sqrsum 119664.1037242
field min 13.004416427773
field max 25.167376191516
attr interpolationmode  none
attr title  "Latency time of file print, stats"
attr unit  s
statistic UCACnet.owner[146] 	latency:stats
field count 201
field mean 23.533205988747
field stddev 0.67308707500578
field sum 4730.1744037381
field sqrsum 111406.77784797
field min 21.320999690483
field max 25.01501482285
attr interpolationmode  none
attr title  "Latency time of file print, stats"
attr unit  s
statistic UCACnet.owner[147] 	latency:stats
field count 205
field mean 23.533064292883
field stddev 0.6976978824638
field sum 4824.2781800411
field sqrsum 113629.35217404
field min 21.402393244368
field max 25.55063164963
attr interpolationmode  none
attr title  "Latency time of file print, stats"
attr unit  s
statistic UCACnet.owner[148] 	latency:stats
field count 199
field mean 23.538958293426
field stddev 0.69087627395456
field sum 4684.2527003918
field sqrsum 110356.93633552
field min 21.828010414465
field max 25.33972052962
attr interpolationmode  none
attr title  "Latency time of file print, stats"
attr unit  s
statistic UCACnet.owner[149] 	latency:stats
field count 200
field mean 23.465537983043
field stddev 1.1737681894777
field sum 4693.1075966087
field sqrsum 110400.46318749
field min 10.399784410549
field max 25.670878132273
attr interpolationmode  none
attr title  "Latency time of file print, stats"
attr unit  s
statistic UCACnet.owner[150] 	latency:stats
field count 202
field mean 23.472558714954
field stddev 1.0445325826873
field sum 4741.4568604207
field sqrsum 111513.42526222
field min 11.821922701428
field max 24.912385281138
attr interpolationmode  none
attr title  "Latency time of file print, stats"
attr unit  s
statistic UCACnet.owner[151] 	latency:stats
field count 203
field mean 23.558522351292
field stddev 0.67041350706128
field sum 4782.3800373123
field sqrsum 112756.59676403
field min 21.650711716261
field max 25.349361756265
attr interpolationmode  none
attr title  "Latency time of file print, stats"
attr unit  s
statistic UCACnet.owner[152] 	latency:stats
field count 201
field mean 23.469513675017
field stddev 0.7165120121351
field sum 4717.3722486784
field sqrsum 110817.11039321
field min 20.985583282373
field max 25.569841140458
attr interpolationmode  none
attr title  "Latency time of file print, stats"
attr unit  s
statistic UCACnet.owner[153] 	latency:stats
field count 207
field mean 23.580848573875
field stddev 0.65646033372858
field sum 4881.2356547921
field sqrsum 115192.45250402
field min 21.871069112495
field max 25.632157947852
attr interpolationmode  none
attr title  "Latency time of file print, stats"
attr unit  s
statistic UCACnet.owner[154] 	latency:stats
field count 198
field mean 23.498454302233
field stddev 0.85637259966344
field sum 4652.693951842
field sqrsum 109475.59089344
field min 16.073118038898
field max 25.582321956201
attr interpolationmode  none
attr title  "Latency time of file print, stats"
attr unit  s
statistic UCACnet.owner[155] 	latency:stats
field count 200
field mean 23.54729050143
field stddev 0.63735198523531
field sum 4709.4581002859
field sqrsum 110975.81528481
field min 22.159683117131
field max 25.502372401229
attr interpolationmode  none
attr title  "Latency time of file print, stats"
attr unit  s
statistic UCACnet.owner[156] 	latency:stats
field count 203
field mean 23.454032267882
field stddev 0.66605704850111
field sum 4761.16855038
field sqrsum 111758.21447579
field min 21.223924798197
field max 25.083553942669
attr interpolationmode  none
attr title  "Latency time of file print, stats"
attr unit  s
statistic UCACnet.owner[157] 	latency:stats
field count 204
field mean 23.520194082441
field stddev 0.67511533029422
field sum 4798.119592818
field sqrsum 112945.22753781
field min 21.733888090671
field max 24.800719590695
attr interpolationmode  none
attr title  "Latency time of file print, stats"
attr unit  s
statistic UCACnet.owner[158] 	latency:stats
field count 209
field mean 23.483867124641
field stddev 0.85746416434274
field sum 4908.12822905
field sqrsum 115414.76207868
field min 16.005799327757
field max 25.541932314656
attr interpolationmode  none
attr title  "Latency time of file print, stats"
attr unit  s
statistic UCACnet.owner[159] 	latency:stats
field count 206
field mean 23.517411868902
field stddev 0.63272328743558
field sum 4844.5868449938
field sqrsum 114014.21361387
field min 21.636664193683
field max 25.041897423768
attr interpolationmode  none
attr title  "Latency time of file print, stats"
attr unit  s
statistic UCACnet.owner[160] 	latency:stats
field count 206
field mean 23.48454622404
field stddev 0.65495816006229
field sum 4837.8165221522
field sqrsum 113701.86462715
field min 21.562676203393
field max 25.017142646952
attr interpolationmode  none
attr title  "Latency time of file print, stats"
attr unit  s
statistic UCACnet.owner[161] 	latency:stats
field count 192
field mean 23.545503891753
field stddev 0.63851975653421
field sum 4520.7367472166
field sqrsum 106520.89680376
field min 21.872768449646
field max 25.559411606283
attr interpolationmode  none
attr title  "Latency time of file print, stats"
attr unit  s
statistic UCACnet.owner[162] 	latency:stats
field count 203
field mean 23.5616816208
field stddev 0.64414741578273
field sum 4783.0213690224
field sqrsum 112779.84171283
field min 22.1909162752
field max 24.990684009105
attr interpolationmode  none
attr title  "Latency time of file print, stats"
attr unit  s
statistic UCACnet.owner[163] 	latency:stats
field count 191
field mean 23.470443437463
field stddev 0.73012007081653
field sum 4482.8546965554
field sqrsum 105315.87190425
field min 20.997977094452
field max 25.66374343813
attr interpolationmode  none
attr title  "Latency time of file print, stats"
attr unit  s
statistic UCACnet.owner[164] 	latency:stats
field count 203
field mean 23.504807375169
field stddev 0.98300383022942
field sum 4771.4758971592
field sqrsum 112347.8137571
field min 13.326711677189
field max 25.527689677077
attr interpolationmode  none
attr title  "Latency time of file print, stats"
attr unit  s
statistic UCACnet.owner[165] 	latency:stats
field count 200
field mean 23.552446724734
field stddev 0.69737926586519
field sum 4710.4893449469
field sqrsum 111040.33057454
field min 19.207731211193
field max 25.284164404524
attr interpolationmode  none
attr title  "Latency time of file print, stats"
attr unit  s
statistic UCACnet.owner[166] 	latency:stats
field count 200
field mean 23.482862276747
field stddev 0.6719594980707
field sum 4696.5724553494
field sqrsum 110378.81852558
field min 21.178177453486
field max 25.488495785836
attr interpolationmode  none
attr title  "Latency time of file print, stats"
attr unit  s
statistic UCACnet.owner[167] 	latency:stats
field count 205
field mean 23.535427618143
field stddev 0.69842599182444
field sum 4824.7626617194
field sqrsum 113652.36336829
field min 21.654775477838
field max 25.637003334849
attr interpolationmode  none
attr title  "Latency time of file print, stats"
attr unit  s
statistic UCACnet.owner[168] 	latency:stats
field count 210
field mean 23.498918909979
field stddev 0.70576476469118
field sum 4934.7729710955
field sqrsum 116065.93360267
field min 21.234881101957
field max 25.080479438845
attr interpolationmode  none
attr title  "Latency time of file print, stats"
attr unit  s
statistic UCACnet.owner[169] 	latency:stats
field count 208
field mean 23.577244092522
field stddev 0.67124064555408
field sum 4904.0667712445
field sqrsum 115717.64606053
field min 21.836421429941
field max 25.499681920672
attr interpolationmode  none
attr title  "Latency time of file print, stats"
attr unit  s
statistic UCACnet.owner[170] 	latency:stats
field count 200
field mean 23.499939312867
field stddev 0.71150486539969
field sum 4699.9878625733
field sqrsum 110550.17113721
field min 20.503537291032
field max 25.61871746948
attr interpolationmode  none
attr title  "Latency time of file print, stats"
attr unit  s
statistic UCACnet.owner[171] 	latency:stats
field count 201
field mean 23.533366633362
field stddev 0.6759373677787
field sum 4730.2066933058
field sqrsum 111409.06663018
field min 21.892062913576
field max 25.637121596607
attr interpolationmode  none
attr title  "Latency time of file print, stats"
attr unit  s
statistic UCACnet.owner[172] 	latency:stats
field count 207
field mean 23.543402790294
field stddev 0.70707351950453
field sum 4873.4843775909
field sqrsum 114841.396004
field min 22.065725912663
field max 25.570772704618
attr interpolationmode  none
attr title  "Latency time of file print, stats"
attr unit  s
statistic UCACnet.owner[173] 	latency:stats
field count 200
field mean 23.512676557042
field stddev 0.64894600944988
field sum 4702.5353114084
field sqrsum 110652.99682893
field min 21.508475662363
field max 25.138526347571
attr interpolationmode  none
attr title  "Latency time of file print, stats"
attr unit  s
statistic UCACnet.owner[174] 	latency:stats
field count 202
field mean 23.450878836875
field stddev 0.9055145517302
field sum 4737.0775250488
field sqrsum 111253.44235809
field min 14.915182607828
field max 25.630936859365
attr interpolationmode  none
attr title  "Latency time of file print, stats"
attr unit  s
statistic UCACnet.owner[175] 	latency:stats
field count 204
field mean 23.488365434196
field stddev 0.69813565381137
field sum 4791.6265485759
field sqrsum 112646.41625554
field min 21.868764436011
field max 25.099353567217
attr interpolationmode  none
attr title  "Latency time of file print, stats"
attr unit  s
statistic UCACnet.owner[176] 	latency:stats
field count 204
field mean 23.549469163726
field stddev 0.64395188993932
field sum 4804.0917094
field sqrsum 113217.98839965
field min 21.522398340214
field max 25.345433021935
attr interpolationmode  none
attr title  "Latency time of file print, stats"
attr unit  s
statistic UCACnet.owner[177] 	latency:stats
field count 198
field mean 23.493256553549
field stddev 0.92923865198445
field sum 4651.6647976026
field sqrsum 109452.86093224
field min 14.347980868615
field max 25.493848994823
attr interpolationmode  none
attr title  "Latency time of file print, stats"
attr unit  s
statistic UCACnet.owner[178] 	latency:stats
field count 201
field mean 23.516754922411
field stddev 0.68667652391775
field sum 4726.8677394046
field sqrsum 111254.89510793
field min 21.338265387858
field max 25.018448614598
attr interpolationmode  none
attr title  "Latency time of file print, stats"
attr unit  s
statistic UCACnet.owner[179] 	latency:stats
field count 206
field mean 23.490699763368
field stddev 0.7013642353475
field sum 4839.0841512538
field sqrsum 113774.31484386
field min 20.76228153672
field max 25.145140101785
attr interpolationmode  none
attr title  "Latency time of file print, stats"
attr unit  s
statistic UCACnet.owner[180] 	latency:stats
field count 204
field mean 23.474081361937
field stddev 0.67053083609497
field sum 4788.7125978351
field sqrsum 112501.90029575
field min 21.578083551025
field max 25.349250803472
attr interpolationmode  none
attr title  "Latency time of file print, stats"
attr unit  s
statistic UCACnet.owner[181] 	latency:stats
field count 210
field mean 23.388843716842
field stddev 1.1862679120882
field sum 4911.6571805368
field sqrsum 115172.09358216
field min 9.37367818537
field max 24.934056224428
attr interpolationmode  none
attr title  "Latency time of file print, stats"
attr unit  s
statistic UCACnet.owner[182] 	latency:stats
field count 196
field mean 23.562352254175
field stddev 0.67373502864163
field sum 4618.2210418182
field sqrsum 108904.66515828
field min 21.704075362155
field max 25.266940095439
attr interpolationmode  none
attr title  "Latency time of file print, stats"
attr unit  s
statistic UCACnet.owner[183] 	latency:stats
field count 199
field mean 23.513433827646
field stddev 0.66201428834546
field sum 4679.1733317015
field sqrsum 110110.2085608
field min 21.46237193678
field max 25.314549840414
attr interpolationmode  none
attr title  "Latency time of file print, stats"
attr unit  s
statistic UCACnet.owner[184] 	latency:stats
field count 206
field mean 23.494098408348
field stddev 0.8040369082586
field sum 4839.7842721198
field sqrsum 113838.89541108
field min 16.436378556403
field max 25.350148626178
attr interpolationmode  none
attr title  "Latency time of file print, stats"
attr unit  s
statistic UCACnet.owner[185] 	latency:stats
field count 198
field mean 23.568665701235
field stddev 0.65247290540697
field sum 4666.5958088446
field sqrsum 110069.30359723
field min 21.094955995224
field max 25.099540887003
attr interpolationmode  none
attr title  "Latency time of file print, stats"
attr unit  s
statistic UCACnet.owner[186] 	latency:stats
field count 203
field mean 23.523986536515
field stddev 0.65901707367193
field sum 4775.3692669126
field sqrsum 112423.45164943
field min 21.477627977023
field max 25.156015052682
attr interpolationmode  none
attr title  "Latency time of file print, stats"
attr unit  s
statistic UCACnet.owner[187] 	latency:stats
field count 199
field mean 23.506714666935
field stddev 0.65347570204251
field sum 4677.8362187201
field sqrsum 110045.11328975
field min 21.95476522354
field max 25.628332684176
attr interpolationmode  none
attr title  "Latency time of file print, stats"
attr unit  s
statistic UCACnet.owner[188] 	latency:stats
field count 202
field mean 23.491243766388
field stddev 0.67731588299966
field sum 4745.2312408105
field sqrsum 111563.59392364
field min 21.031144021749
field max 25.412143529293
attr interpolationmode  none
attr title  "Latency time of file print, stats"
attr unit  s
statistic UCACnet.owner[189] 	latency:stats
field count 207
field mean 23.48608832191
field stddev 0.7405317777734
field sum 4861.6202826353
field sqrsum 114293.41113222
field min 20.460508454387
field max 25.508930135942
attr interpolationmode  none
attr title  "Latency time of file print, stats"
attr unit  s
statistic UCACnet.owner[190] 	latency:stats
field count 210
field mean 23.455949458866
field stddev 0.77797140966055
field sum 4925.7493863618
field sqrsum 115664.62371202
field min 18.010181306338
field max 25.130217006657
attr interpolationmode  none
attr title  "Latency time of file print, stats"
attr unit  s
statistic UCACnet.owner[191] 	latency:stats
field count 206
field mean 23.511588183341
field stddev 0.68164419967188
field sum 4843.3871657682
field sqrsum 113970.97541108
field min 21.678802408333
field max 25.28961103294
attr interpolationmode  none
attr title  "Latency time of file print, stats"
attr unit  s
statistic UCACnet.owner[192] 	latency:stats
field count 203
field mean 23.542153902394
field stddev 0.64358580056944
field sum 4779.0572421859
field sqrsum 112592.97004579
field min 22.028859036752
field max 25.208288126999
attr interpolationmode  none
attr title  "Latency time of file print, stats"
attr unit  s
statistic UCACnet.owner[193] 	latency:stats
field count 201
field mean 23.522760007821
field stddev 0.64927705310691
field sum 4728.0747615721
field sqrsum 111301.68005384
field min 22.029030758651
field max 25.323070741181
attr interpolationmode  none
attr title  "Latency time of file print, stats"
attr unit  s
statistic UCACnet.owner[194] 	latency:stats
field count 212
field mean 23.452584091634
field stddev 1.1177961062343
field sum 4971.9478274263
field sqrsum 116868.66229844
field min 10.420561104054
field max 25.179594066929
attr interpolationmode  none
attr title  "Latency time of file print, stats"
attr unit  s
statistic UCACnet.owner[195] 	latency:stats
field count 201
field mean 23.500984848918
field stddev 0.82329192996314
field sum 4723.6979546325
field sqrsum 111147.11598307
field min 17.619163172163
field max 25.459551751962
attr interpolationmode  none
attr title  "Latency time of file print, stats"
attr unit  s
statistic UCACnet.owner[196] 	latency:stats
field count 199
field mean 23.522305167594
field stddev 0.69402283054326
field sum 4680.9387283512
field sqrsum 110201.83944157
field min 21.626145921197
field max 25.386581864947
attr interpolationmode  none
attr title  "Latency time of file print, stats"
attr unit  s
statistic UCACnet.owner[197] 	latency:stats
field count 209
field mean 23.478441903722
field stddev 0.64495361822155
field sum 4906.994357878
field sqrsum 115295.10270862
field min 21.465396942115
field max 25.107026094904
attr interpolationmode  none
attr title  "Latency time of file print, stats"
attr unit  s
statistic UCACnet.owner[198] 	latency:stats
field count 208
field mean 23.50811804495
field stddev 1.19045506806
field sum 4889.6885533497
field sqrsum 115240.73265188
field min 9.040620287087
field max 25.064621846064
attr interpolationmode  none
attr title  "Latency time of file print, stats"
attr unit  s
statistic UCACnet.owner[199] 	latency:stats
field count 211
field mean 23.524060230752
field stddev 0.82197975799536
field sum 4963.5767086886
field sqrsum 116905.36410688
field min 17.026270629705
field max 25.615949094453
attr interpolationmode  none
attr title  "Latency time of file print, stats"
attr unit  s
statistic UCACnet.owner[200] 	latency:stats
field count 204
field mean 23.542702720843
field stddev 0.65399742304691
field sum 4802.711355052
field sqrsum 113155.63134977
field min 21.546508209221
field max 25.306404048671
attr interpolationmode  none
attr title  "Latency time of file print, stats"
attr unit  s
statistic UCACnet.owner[201] 	latency:stats
field count 206
field mean 23.576597425528
field stddev 0.65929086330782
field sum 4856.7790696588
field sqrsum 114595.43112078
field min 22.137103652839
field max 25.073435071168
attr interpolationmode  none
attr title  "Latency time of file print, stats"
attr unit  s
statistic UCACnet.owner[202] 	latency:stats
field count 201
field mean 23.509325362219
field stddev 0.6814639511153
field sum 4725.3743978061
field sqrsum 111183.24279966
field min 20.682469083464
field max 25.515644901496
attr interpolationmode  none
attr title  "Latency time of file print, stats"
attr unit  s
statistic UCACnet.owner[203] 	latency:stats
field count 206
field mean 23.550681314642
field stddev 0.64635715965927
field sum 4851.4403508163
field sqrsum 114340.37002253
field min 21.982095760705
field max 25.524642644448
attr interpolationmode  none
attr title  "Latency time of file print, stats"
attr unit  s
statistic UCACnet.owner[204] 	latency:stats
field count 207
field mean 23.547950914709
field stddev 0.61616737956479
field sum 4874.4258393447
field sqrsum 114860.95082364
field min 21.852229682498
field max 25.512938425533
attr interpolationmode  none
attr title  "Latency time of file print, stats"
attr unit  s
statistic UCACnet.owner[205] 	latency:stats
field count 199
field mean 23.519046019784
field stddev 0.71146758236624
field sum 4680.290157937
field sqrsum 110176.18446237
field min 21.026218309658
field max 25.598099583556
attr interpolationmode  none
attr title  "Latency time of file print, stats"
attr unit  s
statistic UCACnet.owner[206] 	latency:stats
field count 197
field mean 23.535718375379
field stddev 0.69178641011562
field sum 4636.5365199497
field sqrsum 109218.01718439
field min 21.342637138122
field max 25.150917997236
attr interpolationmode  none
attr title  "Latency time of file print, stats"
attr unit  s
statistic UCACnet.owner[207] 	latency:stats
field count 195
field mean 23.54509411931
field stddev 0.65749612725021
field sum 4591.2933532654
field sqrsum 108186.30055652
field min 22.041737936341
field max 25.577936679552
attr interpolationmode  none
attr title  "Latency time of file print, stats"
attr unit  s
statistic UCACnet.owner[208] 	latency:stats
field count 199
field mean 23.536114928074
field stddev 0.70026085123858
field sum 4683.6868706868
field sqrsum 110332.88479703
field min 20.04547596693
field max 25.398703249699
attr interpolationmode  none
attr title  "Latency time of file print, stats"
attr unit  s
statistic UCACnet.owner[209] 	latency:stats
field count 199
field mean 23.509284738496
field stddev 0.71267310741477
field sum 4678.3476629607
field sqrsum 110085.17209991
field min 21.65050930617
field max 25.540313827905
attr interpolationmode  none
attr title  "Latency time of file print, stats"
attr unit  s
statistic UCACnet.owner[210] 	latency:stats
field count 206
field mean 23.533687403367
field stddev 0.6998508789568
field sum 4847.9396050936
field sqrsum 114190.30242349
field min 21.658083715641
field max 25.445287431416
attr interpolationmode  none
attr title  "Latency time of file print, stats"
attr unit  s
statistic UCACnet.owner[211] 	latency:stats
field count 207
field mean 23.517971855046
field stddev 0.70267615826693
field sum 4868.2201739945
field sqrsum 114592.37831555
field min 21.264503116384
field max 25.624538676082
attr interpolationmode  none
attr title  "Latency time of file print, stats"
attr unit  s
statistic UCACnet.owner[212] 	latency:stats
field count 198
field mean 23.604451627992
field stddev 0.60226243655437
field sum 4673.6814223425
field sqrsum 110391.1429067
field min 21.873529065721
field max 25.073075459761
attr interpolationmode  none
attr title  "Latency time of file print, stats"
attr unit  s
statistic UCACnet.owner[213] 	latency:stats
field count 205
field mean 23.523327570822
field stddev 0.64739624486598
field sum 4822.2821520186
field sqrsum 113521.62356803
field min 21.726382470693
field max 25.562658825755
attr interpolationmode  none
attr title  "Latency time of file print, stats"
attr unit  s
statistic UCACnet.owner[214] 	latency:stats
field count 196
field mean 23.549541688637
field stddev 0.69733321092281
field sum 4615.7101709728
field sqrsum 108792.68244736
field min 21.207177558114
field max 25.067522403117
attr interpolationmode  none
attr title  "Latency time of file print, stats"
attr unit  s
statistic UCACnet.owner[215] 	latency:stats
field count 200
field mean 23.58237469155
field stddev 0.67080139285793
field sum 4716.47493831
field sqrsum 111315.22414575
field min 21.916636656188
field max 25.603992368633
attr interpolationmode  none
attr title  "Latency time of file print, stats"
attr unit  s
statistic UCACnet.owner[216] 	latency:stats
field count 210
field mean 23.490603161378
field stddev 0.73220203989501
field sum 4933.0266638893
field sqrsum 115991.82078981
field min 19.379485763099
field max 24.898548353044
attr interpolationmode  none
attr title  "Latency time of file print, stats"
attr unit  s
statistic UCACnet.owner[217] 	latency:stats
field count 202
field mean 23.52651505055
field stddev 0.68095878255026
field sum 4752.356040211
field sqrsum 111899.58058317
field min 21.383506727191
field max 25.07567260365
attr interpolationmode  none
attr title  "Latency time of file print, stats"
attr unit  s
statistic UCACnet.owner[218] 	latency:stats
field count 195
field mean 23.515695689479
field stddev 0.66411092047932
field sum 4585.5606594484
field sqrsum 107918.21143629
field min 22.11932364392
field max 25.531537603268
attr interpolationmode  none
attr title  "Latency time of file print, stats"
attr unit  s
statistic UCACnet.owner[219] 	latency:stats
field count 209
field mean 23.544437956276
field stddev 0.69831681728479
field sum 4920.7875328618
field sqrsum 115958.60720996
field min 21.595944667073
field max 25.267400665797
attr interpolationmode  none
attr title  "Latency time of file print, stats"
attr unit  s
statistic UCACnet.owner[220] 	latency:stats
field count 208
field mean 23.536246056959
field stddev 0.63032812440376
field sum 4895.5391798475
field sqrsum 115304.85862207
field min 21.854617110918
field max 25.19228229749
attr interpolationmode  none
attr title  "Latency time of file print, stats"
attr unit  s
statistic UCACnet.owner[221] 	latency:stats
field count 204
field mean 23.545724812789
field stddev 0.65458657702725
field sum 4803.3278618089
field sqrsum 113184.81818788
field min 21.918704162732
field max 25.501781937233
attr interpolationmode  none
attr title  "Latency time of file print, stats"
attr unit  s
statistic UCACnet.owner[222] 	latency:stats
field count 205
field mean 23.539635368801
field stddev 0.64509307046129
field sum 4825.6252506042
field sqrsum 113678.35241989
field min 21.86241740687
field max 25.330661565161
attr interpolationmode  none
attr title  "Latency time of file print, stats"
attr unit  s
statistic UCACnet.owner[223] 	latency:stats
field count 198
field mean 23.579851455874
field stddev 0.67449501821823
field sum 4668.810588263
field sqrsum 110179.48402218
field min 21.141431818767
field max 25.327669758334
attr interpolationmode  none
attr title  "Latency time of file print, stats"
attr unit  s
statistic UCACnet.owner[224] 	latency:stats
field count 206
field mean 23.564083265995
field stddev 0.65717285535962
field sum 4854.201152795
field sqrsum 114473.33476752
field min 21.26672333048
field max 25.175126479258
attr interpolationmode  none
attr title  "Latency time of file print, stats"
attr unit  s
statistic UCACnet.owner[225] 	latency:stats
field count 208
field mean 23.484183371417
field stddev 0.83555978568322
field sum 4884.7101412546
field sqrsum 114857.94782562
field min 15.864419218389
field max 24.943920581213
attr interpolationmode  none
attr title  "Latency time of file print, stats"
attr unit  s
statistic UCACnet.owner[226] 	latency:stats
field count 206
field mean 23.521140805294
field stddev 0.68987761787974
field sum 4845.3550058905
field sqrsum 114065.84322635
field min 21.13241656611
field max 25.635822349739
attr interpolationmode  none
attr title  "Latency time of file print, stats"
attr unit  s
statistic UCACnet.owner[227] 	latency:stats
field count 197
field mean 23.615518561034
field stddev 0.67735522706413
field sum 4652.2571565237
field sqrsum 109955.3920109
field min 21.706325357783
field max 25.020380639485
attr interpolationmode  none
attr title  "Latency time of file print, stats"
attr unit  s
statistic UCACnet.owner[228] 	latency:stats
field count 200
field mean 23.531161750217
field stddev 0.63355490672566
field sum 4706.2323500434
field sqrsum 110822.99163512
field min 21.893023313478
field max 25.438414463823
attr interpolationmode  none
attr title  "Latency time of file print, stats"
attr unit  s
statistic UCACnet.owner[229] 	latency:stats
field count 202
field mean 23.594562662947
field stddev 0.65260127486747
field sum 4766.1016579152
field sqrsum 112539.68779887
field min 21.851692604893
field max 25.435973120488
attr interpolationmode  none
attr title  "Latency time of file print, stats"
attr unit  s
statistic UCACnet.owner[230] 	latency:stats
field count 200
field mean 23.468304790805
field stddev 0.6751956969467
field sum 4693.660958161
field sqrsum 110242.98790743
field min 21.675641787312
field max 25.328083943718
attr interpolationmode  none
attr title  "Latency time of file print, stats"
attr unit  s
statistic UCACnet.owner[231] 	latency:stats
field count 208
field mean 23.505082836631
field stddev 0.68733073481923
field sum 4889.0572300193
field sqrsum 115015.48685721
field min 20.98379452874
field max 25.231369039256
attr interpolationmode  none
attr title  "Latency time of file print, stats"
attr unit  s
statistic UCACnet.owner[232] 	latency:stats
field count 204
field mean 23.524573289615
field stddev 0.67164578953437
field sum 4799.0129510815
field sqrsum 112986.30682305
field min 21.292669550998
field max 25.5766881774
attr interpolationmode  none
attr title  "Latency time of file print, stats"
attr unit  s
statistic UCACnet.owner[233] 	latency:stats
field count 199
field mean 23.50142358718
field stddev 0.71011186223753
field sum 4676.7832938488
field sqrsum 110010.90846785
field min 20.04958093131
field max 25.571895320203
attr interpolationmode  none
attr title  "Latency time of file print, stats"
attr unit  s
statistic UCACnet.owner[234] 	latency:stats
field count 208
field mean 23.525569438798
field stddev 0.68520363371953
field sum 4893.3184432701
field sqrsum 115215.29015537
field min 21.869997184694
field max 25.513791994181
attr interpolationmode  none
attr title  "Latency time of file print, stats"
attr unit  s
statistic UCACnet.owner[235] 	latency:stats
field count 208
field mean 23.53845051149
field stddev 0.66766569079788
field sum 4895.9977063898
field sqrsum 115336.47565348
field min 21.556297267943
field max 25.338025908316
attr interpolationmode  none
attr title  "Latency time of file print, stats"
attr unit  s
statistic UCACnet.owner[236] 	latency:stats
field count 197
field mean 23.490478875644
field stddev 0.63540476253059
field sum 4627.6243385019
field sqrsum 108784.2446536
field min 21.651888871037
field max 25.336311004771
attr interpolationmode  none
attr title  "Latency time of file print, stats"
attr unit  s
statistic UCACnet.owner[237] 	latency:stats
field count 206
field mean 23.540599487594
field stddev 0.65008420450361
field sum 4849.3634944444
field sqrsum 114243.55873443
field min 21.879509928471
field max 25.090370572906
attr interpolationmode  none
attr title  "Latency time of file print, stats"
attr unit  s
statistic UCACnet.owner[238] 	latency:stats
field count 196
field mean 23.554014449919
field stddev 0.61352062589006
field sum 4616.5868321842
field sqrsum 108812.55242846
field min 21.685275026588
field max 24.967174801748
attr interpolationmode  none
attr title  "Latency time of file print, stats"
attr unit  s
statistic UCACnet.owner[239] 	latency:stats
field count 204
field mean 23.490854907289
field stddev 0.65909934898867
field sum 4792.1344010871
field sqrsum 112659.51953839
field min 21.67582268602
field max 25.50023632379
attr interpolationmode  none
attr title  "Latency time of file print, stats"
attr unit  s
statistic UCACnet.owner[240] 	latency:stats
field count 203
field mean 23.560681948609
field stddev 0.63725608122158
field sum 4782.8184355676
field sqrsum 112768.49523159
field min 21.797578320134
field max 25.065048453806
attr interpolationmode  none
attr title  "Latency time of file print, stats"
attr unit  s
statistic UCACnet.owner[241] 	latency:stats
field count 208
field mean 23.53733103453
field stddev 0.68359040114874
field sum 4895.7648551823
field sqrsum 115329.96830181
field min 20.998364150759
field max 25.468693017487
attr interpolationmode  none
attr title  "Latency time of file print, stats"
attr unit  s
statistic UCACnet.owner[242] 	latency:stats
field count 204
field mean 23.53400239163
field stddev 0.66762156875903
field sum 4800.9364878924
field sqrsum 113075.73165561
field min 21.589361810082
field max 25.584278742456
attr interpolationmode  none
attr title  "Latency time of file print, stats"
attr unit  s
statistic UCACnet.owner[243] 	latency:stats
field count 202
field mean 23.516782631869
field stddev 0.69125951633124
field sum 4750.3900916374
field sqrsum 111809.93698512
field min 21.591717157127
field max 25.580514318311
attr interpolationmode  none
attr title  "Latency time of file print, stats"
attr unit  s
statistic UCACnet.owner[244] 	latency:stats
field count 200
field mean 23.559835704649
field stddev 0.66524254397634
field sum 4711.9671409297
field sqrsum 111101.23866683
field min 21.612052927864
field max 25.064190631313
attr interpolationmode  none
attr title  "Latency time of file print, stats"
attr unit  s
statistic UCACnet.owner[245] 	latency:stats
field count 203
field mean 23.457595015857
field stddev 0.70586857042019
field sum 4761.8917882189
field sqrsum 111803.17566599
field min 19.537113275256
field max 25.549676719035
attr interpolationmode  none
attr title  "Latency time of file print, stats"
attr unit  s
statistic UCACnet.owner[246] 	latency:stats
field count 193
field mean 23.587409964428
field stddev 0.63624752525302
field sum 4552.3701231345
field sqrsum 107456.34409956
field min 22.10353377727
field max 25.04390044283
attr interpolationmode  none
attr title  "Latency time of file print, stats"
attr unit  s
statistic UCACnet.owner[247] 	latency:stats
field count 204
field mean 23.538541432748
field stddev 0.61797303869558
field sum 4801.8624522806
field sqrsum 113106.3620947
field min 22.098298967832
field max 25.034246539988
attr interpolationmode  none
attr title  "Latency time of file print, stats"
attr unit  s
statistic UCACnet.owner[248] 	latency:stats
field count 203
field mean 23.515538673475
field stddev 0.68752569134135
field sum 4773.6543507154
field sqrsum 112350.53719646
field min 21.686696181441
field max 25.101941652896
attr interpolationmode  none
attr title  "Latency time of file print, stats"
attr unit  s
statistic UCACnet.owner[249] 	latency:stats
field count 205
field mean 23.478797867278
field stddev 0.68180447768366
field sum 4813.153562792
field sqrsum 113101.8905035
field min 21.253384158769
field max 25.367614203081
attr interpolationmode  none
attr title  "Latency time of file print, stats"
attr unit  s
statistic UCACnet.owner[250] 	latency:stats
field count 203
field mean 23.507595526953
field stddev 0.64890985121193
field sum 4772.0418919716
field sqrsum 112264.28960114
field min 21.708148781235
field max 25.245539353212
attr interpolationmode  none
attr title  "Latency time of file print, stats"
attr unit  s
statistic UCACnet.owner[251] 	latency:stats
field count 210
field mean 23.499841832564
field stddev 0.66521405541635
field sum 4934.9667848385
field sqrsum 116063.42342822
field min 21.191600367512
field max 25.287875700717
attr interpolationmode  none
attr title  "Latency time of file print, stats"
attr unit  s
statistic UCACnet.owner[252] 	latency:stats
field count 194
field mean 23.428035358168
field stddev 1.1661813066878
field sum 4545.0388594846
field sqrsum 106743.80702039
field min 10.35188787853
field max 25.591726636617
attr interpolationmode  none
attr title  "Latency time of file print, stats"
attr unit  s
statistic UCACnet.owner[253] 	latency:stats
field count 206
field mean 23.540437137949
field stddev 0.6311651664905
field sum 4849.3300504176
field sqrsum 114237.01495384
field min 21.257193428617
field max 25.011846967786
attr interpolationmode  none
attr title  "Latency time of file print, stats"
attr unit  s
statistic UCACnet.owner[254] 	latency:stats
field count 204
field mean 23.554510259185
field stddev 0.69980764805305
field sum 4805.1200928738
field sqrsum 113281.6658653
field min 21.336413533313
[...]
field mean 23.571011246015
field stddev 0.66209108104548
field sum 4690.6312379571
field sqrsum 110649.71785152
field min 21.929469711732
field max 25.559572361525
attr interpolationmode  none
attr title  "Latency time of file print, stats"
attr unit  s
statistic UCACnet.owner[337] 	latency:stats
field count 201
field mean 23.583752710647
field stddev 0.66328062374511
field sum 4740.3342948401
field sqrsum 111882.86001248
field min 21.609307414495
field max 25.551331448306
attr interpolationmode  none
attr title  "Latency time of file print, stats"
attr unit  s
statistic UCACnet.owner[338] 	latency:stats
field count 205
field mean 23.499133255695
field stddev 0.78974516551079
field sum 4817.3223174174
field sqrsum 113330.13334762
field min 17.714735939819
field max 25.536658571496
attr interpolationmode  none
attr title  "Latency time of file print, stats"
attr unit  s
statistic UCACnet.owner[339] 	latency:stats
field count 202
field mean 23.527348463714
field stddev 0.68503553495208
field sum 4752.5243896702
field sqrsum 111908.62140858
field min 21.899027454347
field max 25.556427258089
attr interpolationmode  none
attr title  "Latency time of file print, stats"
attr unit  s
statistic UCACnet.owner[340] 	latency:stats
field count 206
field mean 23.541178952495
field stddev 0.66947808609336
field sum 4849.482864214
field sqrsum 114254.42511961
field min 21.517788519403
field max 25.414605345627
attr interpolationmode  none
attr title  "Latency time of file print, stats"
attr unit  s
statistic UCACnet.owner[341] 	latency:stats
field count 206
field mean 23.525479261238
field stddev 0.68509227162715
field sum 4846.248727815
field sqrsum 114106.54098224
field min 21.451108606476
field max 25.560686145009
attr interpolationmode  none
attr title  "Latency time of file print, stats"
attr unit  s
statistic UCACnet.owner[342] 	latency:stats
field count 205
field mean 23.490761413984
field stddev 0.99902081644548
field sum 4815.6060898668
field sqrsum 113325.8544095
field min 12.908985163125
field max 25.081801182428
attr interpolationmode  none
attr title  "Latency time of file print, stats"
attr unit  s
statistic UCACnet.owner[343] 	latency:stats
field count 201
field mean 23.479667537032
field stddev 0.67418717416764
field sum 4719.4131749435
field sqrsum 110901.15798672
field min 21.579212095364
field max 25.529825397774
attr interpolationmode  none
attr title  "Latency time of file print, stats"
attr unit  s
statistic UCACnet.owner[344] 	latency:stats
field count 202
field mean 23.47560212448
field stddev 0.76052004163688
field sum 4742.0716291449
field sqrsum 111439.24334907
field min 18.628293611002
field max 25.015085887946
attr interpolationmode  none
attr title  "Latency time of file print, stats"
attr unit  s
statistic UCACnet.owner[345] 	latency:stats
field count 197
field mean 23.483841741581
field stddev 0.73996545203493
field sum 4626.3168230914
field sqrsum 108751.01169845
field min 18.01539061742
field max 25.065745699216
attr interpolationmode  none
attr title  "Latency time of file print, stats"
attr unit  s
statistic UCACnet.owner[346] 	latency:stats
field count 202
field mean 23.49600466331
field stddev 1.1447513647782
field sum 4746.1929419886
field sqrsum 111779.97309105
field min 10.236730987801
field max 25.273433291184
attr interpolationmode  none
attr title  "Latency time of file print, stats"
attr unit  s
statistic UCACnet.owner[347] 	latency:stats
field count 201
field mean 23.497403175161
field stddev 0.78113870545447
field sum 4722.9780382073
field sqrsum 111099.75468662
field min 17.708496179983
field max 25.03511732843
attr interpolationmode  none
attr title  "Latency time of file print, stats"
attr unit  s
statistic UCACnet.owner[348] 	latency:stats
field count 206
field mean 23.530253601233
field stddev 0.6957088301692
field sum 4847.2322418539
field sqrsum 114155.82612405
field min 20.975747558279
field max 25.262829491725
attr interpolationmode  none
attr title  "Latency time of file print, stats"
attr unit  s
statistic UCACnet.owner[349] 	latency:stats
field count 202
field mean 23.537107596498
field stddev 0.68062800118345
field sum 4754.4957344927
field sqrsum 112000.19181952
field min 21.151392901295
field max 25.569899962203
attr interpolationmode  none
attr title  "Latency time of file print, stats"
attr unit  s
statistic UCACnet.owner[350] 	latency:stats
field count 205
field mean 23.487492753176
field stddev 0.72085703386449
field sum 4814.9360144011
field sqrsum 113196.78025736
field min 19.390628640577
field max 24.849563880192
attr interpolationmode  none
attr title  "Latency time of file print, stats"
attr unit  s
statistic UCACnet.owner[351] 	latency:stats
field count 198
field mean 23.505621164481
field stddev 0.66817482380458
field sum 4654.1129905672
field sqrsum 109485.76895921
field min 21.337562207045
field max 25.081633750037
attr interpolationmode  none
attr title  "Latency time of file print, stats"
attr unit  s
statistic UCACnet.owner[352] 	latency:stats
field count 199
field mean 23.544557771748
field stddev 0.67495185837559
field sum 4685.3669965779
field sqrsum 110405.09481497
field min 21.786010037365
field max 25.129699208663
attr interpolationmode  none
attr title  "Latency time of file print, stats"
attr unit  s
statistic UCACnet.owner[353] 	latency:stats
field count 208
field mean 23.571487583188
field stddev 0.65463525603418
field sum 4902.869417303
field sqrsum 115656.63488687
field min 21.723138104929
field max 25.349438031627
attr interpolationmode  none
attr title  "Latency time of file print, stats"
attr unit  s
statistic UCACnet.owner[354] 	latency:stats
field count 211
field mean 23.485694775746
field stddev 0.6669125378374
field sum 4955.4815976824
field sqrsum 116476.33045995
field min 20.897541355146
field max 25.491282084468
attr interpolationmode  none
attr title  "Latency time of file print, stats"
attr unit  s
statistic UCACnet.owner[355] 	latency:stats
field count 203
field mean 23.521941054903
field stddev 0.67524721548788
field sum 4774.9540341453
field sqrsum 112408.29100904
field min 21.283267777583
field max 25.56939660619
attr interpolationmode  none
attr title  "Latency time of file print, stats"
attr unit  s
statistic UCACnet.owner[356] 	latency:stats
field count 206
field mean 23.501353579868
field stddev 0.63663893252897
field sum 4841.2788374529
field sqrsum 113859.69410945
field min 21.939136424312
field max 25.042881234426
attr interpolationmode  none
attr title  "Latency time of file print, stats"
attr unit  s
statistic UCACnet.owner[357] 	latency:stats
field count 203
field mean 23.545049040583
field stddev 0.67249819305503
field sum 4779.6449552384
field sqrsum 112628.33013924
field min 21.646226769995
field max 25.557369230679
attr interpolationmode  none
attr title  "Latency time of file print, stats"
attr unit  s
statistic UCACnet.owner[358] 	latency:stats
field count 210
field mean 23.392616766613
field stddev 1.0574856833053
field sum 4912.4495209888
field sqrsum 115148.76870764
field min 11.158117645558
field max 25.504149753509
attr interpolationmode  none
attr title  "Latency time of file print, stats"
attr unit  s
statistic UCACnet.owner[359] 	latency:stats
field count 200
field mean 23.550148740155
field stddev 0.70021093959945
field sum 4710.0297480309
field sqrsum 111019.46991331
field min 20.992921686961
field max 25.606564842723
attr interpolationmode  none
attr title  "Latency time of file print, stats"
attr unit  s
statistic UCACnet.owner[360] 	latency:stats
field count 208
field mean 23.457699209967
field stddev 0.76382305800036
field sum 4879.2014356731
field sqrsum 114575.60877529
field min 17.576112276492
field max 24.909504344859
attr interpolationmode  none
attr title  "Latency time of file print, stats"
attr unit  s
statistic UCACnet.owner[361] 	latency:stats
field count 199
field mean 23.509262003879
field stddev 0.63855979610498
field sum 4678.3431387719
field sqrsum 110065.13079885
field min 21.622833904117
field max 25.055129906003
attr interpolationmode  none
attr title  "Latency time of file print, stats"
attr unit  s
statistic UCACnet.owner[362] 	latency:stats
field count 209
field mean 23.531155812124
field stddev 0.69637138722016
field sum 4918.011564734
field sqrsum 115827.36250224
field min 21.334156996902
field max 25.246777910141
attr interpolationmode  none
attr title  "Latency time of file print, stats"
attr unit  s
statistic UCACnet.owner[363] 	latency:stats
field count 209
field mean 23.481992856336
field stddev 1.0163772982859
field sum 4907.7365069742
field sqrsum 115458.30234254
field min 12.616856634056
field max 25.513128707859
attr interpolationmode  none
attr title  "Latency time of file print, stats"
attr unit  s
statistic UCACnet.owner[364] 	latency:stats
field count 205
field mean 23.493948206683
field stddev 0.67284713393779
field sum 4816.25938237
field sqrsum 113245.30402554
field min 21.265098209719
field max 25.536277684941
attr interpolationmode  none
attr title  "Latency time of file print, stats"
attr unit  s
statistic UCACnet.owner[365] 	latency:stats
field count 201
field mean 23.550811505381
field stddev 0.65545880666805
field sum 4733.7131125816
field sqrsum 111568.71048441
field min 22.114782324652
field max 25.234228631899
attr interpolationmode  none
attr title  "Latency time of file print, stats"
attr unit  s
statistic UCACnet.owner[366] 	latency:stats
field count 202
field mean 23.447260641674
field stddev 0.70270677783363
field sum 4736.3466496182
field sqrsum 111153.60754286
field min 19.741004988587
field max 25.192823777964
attr interpolationmode  none
attr title  "Latency time of file print, stats"
attr unit  s
statistic UCACnet.owner[367] 	latency:stats
field count 197
field mean 23.539728254508
field stddev 0.65503601238289
field sum 4637.326466138
field sqrsum 109245.50298712
field min 21.50257764289
field max 25.089481398513
attr interpolationmode  none
attr title  "Latency time of file print, stats"
attr unit  s
statistic UCACnet.owner[368] 	latency:stats
field count 199
field mean 23.534092297408
field stddev 0.63759441899416
field sum 4683.2843671842
field sqrsum 110297.33882766
field min 21.929231035951
field max 24.836653606604
attr interpolationmode  none
attr title  "Latency time of file print, stats"
attr unit  s
statistic UCACnet.owner[369] 	latency:stats
field count 202
field mean 23.443349034267
field stddev 0.72801810296454
field sum 4735.5565049219
field sqrsum 111123.83609838
field min 20.538007642312
field max 25.614410275769
attr interpolationmode  none
attr title  "Latency time of file print, stats"
attr unit  s
statistic UCACnet.owner[370] 	latency:stats
field count 203
field mean 23.552353608206
field stddev 0.66542588745232
field sum 4781.1277824659
field sqrsum 112696.25608422
field min 21.927118542358
field max 25.012018837427
attr interpolationmode  none
attr title  "Latency time of file print, stats"
attr unit  s
statistic UCACnet.owner[371] 	latency:stats
field count 201
field mean 23.537362902612
field stddev 0.6555731576589
field sum 4731.009943425
field sqrsum 111441.45316727
field min 22.127931691432
field max 25.364863342409
attr interpolationmode  none
attr title  "Latency time of file print, stats"
attr unit  s
statistic UCACnet.owner[372] 	latency:stats
field count 207
field mean 23.515569143595
field stddev 0.68058779216919
field sum 4867.7228127241
field sqrsum 114562.6915215
field min 20.94101097154
field max 25.578715829144
attr interpolationmode  none
attr title  "Latency time of file print, stats"
attr unit  s
statistic UCACnet.owner[373] 	latency:stats
field count 208
field mean 23.508143619656
field stddev 0.66428227309998
field sum 4889.6938728885
field sqrsum 115038.96890426
field min 21.374187204621
field max 25.367749648403
attr interpolationmode  none
attr title  "Latency time of file print, stats"
attr unit  s
statistic UCACnet.owner[374] 	latency:stats
field count 206
field mean 23.520094049109
field stddev 0.70973691333155
field sum 4845.1393741165
field sqrsum 114061.39768992
field min 21.454215517311
field max 25.589373436832
attr interpolationmode  none
attr title  "Latency time of file print, stats"
attr unit  s
statistic UCACnet.owner[375] 	latency:stats
field count 205
field mean 23.523697133485
field stddev 0.65650171688681
field sum 4822.3579123645
field sqrsum 113527.6098786
field min 21.738647243707
field max 25.187511826385
attr interpolationmode  none
attr title  "Latency time of file print, stats"
attr unit  s
statistic UCACnet.owner[376] 	latency:stats
field count 199
field mean 23.556671517699
field stddev 0.68175371313919
field sum 4687.7776320222
field sqrsum 110520.46587439
field min 21.73381805489
field max 25.567424628663
attr interpolationmode  none
attr title  "Latency time of file print, stats"
attr unit  s
statistic UCACnet.owner[377] 	latency:stats
field count 202
field mean 23.593681847737
field stddev 0.6464872852793
field sum 4765.9237332429
field sqrsum 112529.69538053
field min 21.61966856519
field max 25.45724453857
attr interpolationmode  none
attr title  "Latency time of file print, stats"
attr unit  s
statistic UCACnet.owner[378] 	latency:stats
field count 205
field mean 23.478532276005
field stddev 0.72429832075935
field sum 4813.099116581
field sqrsum 113111.52299998
field min 21.494820732979
field max 25.308319921432
attr interpolationmode  none
attr title  "Latency time of file print, stats"
attr unit  s
statistic UCACnet.owner[379] 	latency:stats
field count 205
field mean 23.550642019794
field stddev 0.67574242306155
field sum 4827.8816140578
field sqrsum 113792.86368237
field min 21.296240160745
field max 25.370997817048
attr interpolationmode  none
attr title  "Latency time of file print, stats"
attr unit  s
statistic UCACnet.owner[380] 	latency:stats
field count 197
field mean 23.506517130468
field stddev 0.65140672423338
field sum 4630.7838747021
field sqrsum 108936.76929937
field min 21.296043644601
field max 25.070634195098
attr interpolationmode  none
attr title  "Latency time of file print, stats"
attr unit  s
statistic UCACnet.owner[381] 	latency:stats
field count 202
field mean 23.476109951709
field stddev 0.74440113265596
field sum 4742.1742102452
field sqrsum 111439.18391218
field min 19.040156963532
field max 25.077870313084
attr interpolationmode  none
attr title  "Latency time of file print, stats"
attr unit  s
statistic UCACnet.owner[382] 	latency:stats
field count 204
field mean 23.491237275306
field stddev 0.76579972440028
field sum 4792.2124041623
field sqrsum 112694.04785107
field min 18.964439957825
field max 25.081053354022
attr interpolationmode  none
attr title  "Latency time of file print, stats"
attr unit  s
statistic UCACnet.owner[383] 	latency:stats
field count 210
field mean 23.528819408873
field stddev 0.71782785481085
field sum 4941.0520758634
field sqrsum 116364.81484012
field min 19.379699560882
field max 25.321270749669
attr interpolationmode  none
attr title  "Latency time of file print, stats"
attr unit  s
statistic UCACnet.owner[384] 	latency:stats
field count 203
field mean 23.519688361192
field stddev 0.74317619099579
field sum 4774.4967373219
field sqrsum 112406.24213521
field min 18.15536520718
field max 24.739701892142
attr interpolationmode  none
attr title  "Latency time of file print, stats"
attr unit  s
statistic UCACnet.owner[385] 	latency:stats
field count 205
field mean 23.442253642467
field stddev 0.72478122680198
field sum 4805.6619967058
field sqrsum 112762.71024339
field min 19.285093004022
field max 25.034258773449
attr interpolationmode  none
attr title  "Latency time of file print, stats"
attr unit  s
statistic UCACnet.owner[386] 	latency:stats
field count 201
field mean 23.513087441974
field stddev 0.70475009668445
field sum 4726.1305758369
field sqrsum 111225.2560316
field min 21.027294046498
field max 25.042418078142
attr interpolationmode  none
attr title  "Latency time of file print, stats"
attr unit  s
statistic UCACnet.owner[387] 	latency:stats
field count 206
field mean 23.530699014219
field stddev 0.68407303675617
field sum 4847.3239969291
field sqrsum 114156.85295966
field min 20.992109908523
field max 25.525316816883
attr interpolationmode  none
attr title  "Latency time of file print, stats"
attr unit  s
statistic UCACnet.owner[388] 	latency:stats
field count 199
field mean 23.498354727611
field stddev 0.65877196452252
field sum 4676.1725907946
field sqrsum 109968.29044527
field min 21.038620873944
field max 25.453161938303
attr interpolationmode  none
attr title  "Latency time of file print, stats"
attr unit  s
statistic UCACnet.owner[389] 	latency:stats
field count 203
field mean 23.501561753842
field stddev 0.66369576129395
field sum 4770.8170360299
field sqrsum 112210.63058538
field min 21.365666644779
field max 25.41704130059
attr interpolationmode  none
attr title  "Latency time of file print, stats"
attr unit  s
statistic UCACnet.owner[390] 	latency:stats
field count 201
field mean 23.535818874338
field stddev 0.66943165886615
field sum 4730.699593742
field sqrsum 111430.5165364
field min 21.258614194366
field max 25.450167269363
attr interpolationmode  none
attr title  "Latency time of file print, stats"
attr unit  s
statistic UCACnet.owner[391] 	latency:stats
field count 206
field mean 23.452990752825
field stddev 0.66634698292187
field sum 4831.316095082
field sqrsum 113399.83545377
field min 21.42019942542
field max 25.138633953669
attr interpolationmode  none
attr title  "Latency time of file print, stats"
attr unit  s
statistic UCACnet.owner[392] 	latency:stats
field count 204
field mean 23.525500017851
field stddev 0.73047573069595
field sum 4799.2020036416
field sqrsum 113011.94656535
field min 19.509558052611
field max 25.566626427184
attr interpolationmode  none
attr title  "Latency time of file print, stats"
attr unit  s
statistic UCACnet.owner[393] 	latency:stats
field count 211
field mean 23.544956533789
field stddev 0.70684824943984
field sum 4967.9858286294
field sqrsum 117075.93362958
field min 21.986754874104
field max 25.146634844661
attr interpolationmode  none
attr title  "Latency time of file print, stats"
attr unit  s
statistic UCACnet.owner[394] 	latency:stats
field count 211
field mean 23.508531433883
field stddev 0.71042671711288
field sum 4960.3001325494
field sqrsum 116715.35987281
field min 20.206609172778
field max 25.431930130893
attr interpolationmode  none
attr title  "Latency time of file print, stats"
attr unit  s
statistic UCACnet.owner[395] 	latency:stats
field count 201
field mean 23.46279323714
field stddev 0.89810255800092
field sum 4716.0214406652
field sqrsum 110812.35360518
field min 14.552142792058
field max 25.033444687906
attr interpolationmode  none
attr title  "Latency time of file print, stats"
attr unit  s
statistic UCACnet.owner[396] 	latency:stats
field count 204
field mean 23.439777719329
field stddev 0.99917002237115
field sum 4781.7146547432
field sqrsum 112284.99179336
field min 13.173876062856
field max 25.56495863357
attr interpolationmode  none
attr title  "Latency time of file print, stats"
attr unit  s
statistic UCACnet.owner[397] 	latency:stats
field count 208
field mean 23.497344284019
field stddev 0.98552206358817
field sum 4887.4476110759
field sqrsum 115043.08871128
field min 13.028962070851
field max 25.59367652812
attr interpolationmode  none
attr title  "Latency time of file print, stats"
attr unit  s
statistic UCACnet.owner[398] 	latency:stats
field count 201
field mean 23.533948350461
field stddev 0.69935277972043
field sum 4730.3236184426
field sqrsum 111421.01057949
field min 21.732206661973
field max 25.318276621951
attr interpolationmode  none
attr title  "Latency time of file print, stats"
attr unit  s
statistic UCACnet.owner[399] 	latency:stats
field count 203
field mean 23.498000182886
field stddev 0.64597612769815
field sum 4770.0940371259
field sqrsum 112171.96215859
field min 21.230053579303
field max 25.076046986649
attr interpolationmode  none
attr title  "Latency time of file print, stats"
attr unit  s
