version 2
run Owner-600-0-20110907-22:30:53-1939
attr configname Owner-600
attr datetime 20110907-22:30:53
attr experiment Owner-600
attr inifile nocrypto.ini
attr iterationvars ""
attr iterationvars2 $repetition=0
attr measurement ""
attr network UCACnet
attr processid 1939
attr repetition 0
attr replication #0
attr resultdir results
attr runnumber 0
attr seedset 0

statistic UCACnet.owner[0] 	latency:stats
field count 153
field mean 39.91953587229
field stddev 0.53593887896355
field sum 6107.6889884604
field sqrsum 243859.7687049
field min 38.433239804191
field max 41.274086198123
attr interpolationmode  none
attr title  "Latency time of file print, stats"
attr unit  s
statistic UCACnet.owner[1] 	latency:stats
field count 155
field mean 39.914166879612
field stddev 0.57079085354069
field sum 6186.6958663398
field sqrsum 246986.98478106
field min 38.372327197582
field max 41.783227358941
attr interpolationmode  none
attr title  "Latency time of file print, stats"
attr unit  s
statistic UCACnet.owner[2] 	latency:stats
field count 151
field mean 39.910578566824
field stddev 0.55188992157023
field sum 6026.4973635904
field sqrsum 240566.68388516
field min 38.340156996902
field max 42.099523663307
attr interpolationmode  none
attr title  "Latency time of file print, stats"
attr unit  s
statistic UCACnet.owner[3] 	latency:stats
field count 158
field mean 39.906072969203
field stddev 0.56136150621113
field sum 6305.159529134
field sqrsum 251663.63115037
field min 38.558978155585
field max 41.376789123034
attr interpolationmode  none
attr title  "Latency time of file print, stats"
attr unit  s
statistic UCACnet.owner[4] 	latency:stats
field count 158
field mean 39.866607107494
field stddev 0.55486252963194
field sum 6298.9239229841
field sqrsum 251165.06120861
field min 38.398952484855
field max 41.806599929073
attr interpolationmode  none
attr title  "Latency time of file print, stats"
attr unit  s
statistic UCACnet.owner[5] 	latency:stats
field count 156
field mean 39.924996021865
field stddev 0.54271416457804
field sum 6228.2993794109
field sqrsum 248710.48143895
field min 38.044635919464
field max 41.353600685045
attr interpolationmode  none
attr title  "Latency time of file print, stats"
attr unit  s
statistic UCACnet.owner[6] 	latency:stats
field count 157
field mean 39.877271035045
field stddev 0.5651115198383
field sum 6260.7315525021
field sqrsum 249710.70775744
field min 38.31570199973
field max 41.5309088932
attr interpolationmode  none
attr title  "Latency time of file print, stats"
attr unit  s
statistic UCACnet.owner[7] 	latency:stats
field count 155
field mean 39.894062949942
field stddev 0.56404824452708
field sum 6183.579757241
field sqrsum 246737.11525637
field min 38.338366819069
field max 41.361190701753
attr interpolationmode  none
attr title  "Latency time of file print, stats"
attr unit  s
statistic UCACnet.owner[8] 	latency:stats
field count 155
field mean 39.870744828967
field stddev 0.51480961124175
field sum 6179.9654484899
field sqrsum 246440.63990469
field min 38.288680585246
field max 41.114207436254
attr interpolationmode  none
attr title  "Latency time of file print, stats"
attr unit  s
statistic UCACnet.owner[9] 	latency:stats
field count 156
field mean 39.883118548844
field stddev 0.54995640290539
field sum 6221.7664936196
field sqrsum 248190.33071524
field min 37.984786148004
field max 41.910766979847
attr interpolationmode  none
attr title  "Latency time of file print, stats"
attr unit  s
statistic UCACnet.owner[10] 	latency:stats
field count 157
field mean 39.864087540942
field stddev 0.55895667108393
field sum 6258.6617439278
field sqrsum 249544.57912847
field min 38.368010037365
field max 41.903238237142
attr interpolationmode  none
attr title  "Latency time of file print, stats"
attr unit  s
statistic UCACnet.owner[11] 	latency:stats
field count 150
field mean 39.8646786759
field stddev 0.48117722897768
field sum 5979.701801385
field sqrsum 238413.38908724
field min 38.440684613808
field max 40.953111345549
attr interpolationmode  none
attr title  "Latency time of file print, stats"
attr unit  s
statistic UCACnet.owner[12] 	latency:stats
field count 151
field mean 39.913334794725
field stddev 0.50230947639064
field sum 6026.9135540035
field sqrsum 240592.06568132
field min 38.291149574671
field max 41.359010475342
attr interpolationmode  none
attr title  "Latency time of file print, stats"
attr unit  s
statistic UCACnet.owner[13] 	latency:stats
field count 152
field mean 39.881994561468
field stddev 0.56594844707357
field sum 6062.0631733431
field sqrsum 241815.5354549
field min 37.081239852405
field max 40.909841872706
attr interpolationmode  none
attr title  "Latency time of file print, stats"
attr unit  s
statistic UCACnet.owner[14] 	latency:stats
field count 152
field mean 39.926624860306
field stddev 0.51664549922553
field sum 6068.8469787665
field sqrsum 242348.88196416
field min 38.352576016043
field max 41.296345240262
attr interpolationmode  none
attr title  "Latency time of file print, stats"
attr unit  s
statistic UCACnet.owner[15] 	latency:stats
field count 161
field mean 39.779490791392
field stddev 1.4488728403261
field sum 6404.4980174141
field sqrsum 255103.5471084
field min 22.77098455285
field max 41.276317070384
attr interpolationmode  none
attr title  "Latency time of file print, stats"
attr unit  s
statistic UCACnet.owner[16] 	latency:stats
field count 154
field mean 39.856666485439
field stddev 0.52538973762038
field sum 6137.9266387576
field sqrsum 244679.52821264
field min 38.494722270964
field max 41.237695512258
attr interpolationmode  none
attr title  "Latency time of file print, stats"
attr unit  s
statistic UCACnet.owner[17] 	latency:stats
field count 158
field mean 39.850709043094
field stddev 0.61699695145398
field sum 6296.4120288088
field sqrsum 250976.25135788
field min 36.391269835363
field max 41.166924667211
attr interpolationmode  none
attr title  "Latency time of file print, stats"
attr unit  s
statistic UCACnet.owner[18] 	latency:stats
field count 155
field mean 39.840559290787
field stddev 0.54675365055182
field sum 6175.286690072
field sqrsum 246072.9122048
field min 38.40678441407
field max 41.236313010222
attr interpolationmode  none
attr title  "Latency time of file print, stats"
attr unit  s
statistic UCACnet.owner[19] 	latency:stats
field count 151
field mean 39.850269130646
field stddev 0.52302158338953
field sum 6017.3906387275
field sqrsum 239835.66915403
field min 38.480110218498
field max 41.560124612171
attr interpolationmode  none
attr title  "Latency time of file print, stats"
attr unit  s
statistic UCACnet.owner[20] 	latency:stats
field count 155
field mean 39.928346174656
field stddev 0.54171578190145
field sum 6188.8936570716
field sqrsum 247157.48059989
field min 38.161369399238
field max 41.91587006755
attr interpolationmode  none
attr title  "Latency time of file print, stats"
attr unit  s
statistic UCACnet.owner[21] 	latency:stats
field count 151
field mean 39.865270570691
field stddev 0.53586940210613
field sum 6019.6558561743
field sqrsum 240018.28285125
field min 38.532297358994
field max 41.664719240531
attr interpolationmode  none
attr title  "Latency time of file print, stats"
attr unit  s
statistic UCACnet.owner[22] 	latency:stats
field count 156
field mean 39.872800018272
field stddev 0.56588348625718
field sum 6220.1568028505
field sqrsum 248064.70302096
field min 38.385490674269
field max 41.340603134867
attr interpolationmode  none
attr title  "Latency time of file print, stats"
attr unit  s
statistic UCACnet.owner[23] 	latency:stats
field count 157
field mean 39.88328779369
field stddev 0.55544563701109
field sum 6261.6761836093
field sqrsum 249784.36239927
field min 38.071294046498
field max 41.42071746948
attr interpolationmode  none
attr title  "Latency time of file print, stats"
attr unit  s
statistic UCACnet.owner[24] 	latency:stats
field count 156
field mean 39.890058542934
field stddev 0.54541688055577
field sum 6222.8491326977
field sqrsum 248275.92554107
field min 38.545222431265
field max 41.450502714778
attr interpolationmode  none
attr title  "Latency time of file print, stats"
attr unit  s
statistic UCACnet.owner[25] 	latency:stats
field count 156
field mean 39.867852109422
field stddev 0.55710134732742
field sum 6219.3849290699
field sqrsum 248001.62465996
field min 38.35938681635
field max 41.253846967786
attr interpolationmode  none
attr title  "Latency time of file print, stats"
attr unit  s
statistic UCACnet.owner[26] 	latency:stats
field count 153
field mean 39.847913871151
field stddev 0.56304869377703
field sum 6096.7308222861
field sqrsum 242990.19232444
field min 37.979549322586
field max 41.487227509192
attr interpolationmode  none
attr title  "Latency time of file print, stats"
attr unit  s
statistic UCACnet.owner[27] 	latency:stats
field count 155
field mean 39.897545166682
field stddev 0.51742887518023
field sum 6184.1195008357
field sqrsum 246772.41792745
field min 38.164042941891
field max 41.353138601031
attr interpolationmode  none
attr title  "Latency time of file print, stats"
attr unit  s
statistic UCACnet.owner[28] 	latency:stats
field count 155
field mean 39.778755745279
field stddev 1.3479838628695
field sum 6165.7071405182
field sqrsum 245543.98565575
field min 24.47597768913
field max 41.458143529293
attr interpolationmode  none
attr title  "Latency time of file print, stats"
attr unit  s
statistic UCACnet.owner[29] 	latency:stats
field count 159
field mean 39.819726552317
field stddev 0.55566040255875
field sum 6331.3365218185
field sqrsum 252160.87284982
field min 37.867051281354
field max 41.394781093969
attr interpolationmode  none
attr title  "Latency time of file print, stats"
attr unit  s
statistic UCACnet.owner[30] 	latency:stats
field count 156
field mean 39.763419499236
field stddev 1.2099021739057
field sum 6203.0934418808
field sqrsum 246883.10552938
field min 26.097220982538
field max 41.102750260618
attr interpolationmode  none
attr title  "Latency time of file print, stats"
attr unit  s
statistic UCACnet.owner[31] 	latency:stats
field count 152
field mean 39.889935474732
field stddev 0.5567086850906
field sum 6063.2701921593
field sqrsum 241910.25533967
field min 38.326681805364
field max 41.9327061607
attr interpolationmode  none
attr title  "Latency time of file print, stats"
attr unit  s
statistic UCACnet.owner[32] 	latency:stats
field count 155
field mean 39.775174647598
field stddev 1.9100882689859
field sum 6165.1520703777
field sqrsum 245781.85965635
field min 16.98257535979
field max 41.525920581213
attr interpolationmode  none
attr title  "Latency time of file print, stats"
attr unit  s
statistic UCACnet.owner[33] 	latency:stats
field count 158
field mean 39.865828461583
field stddev 0.55870234219326
field sum 6298.8008969301
field sqrsum 251155.92335491
field min 38.405197319921
field max 41.333819451452
attr interpolationmode  none
attr title  "Latency time of file print, stats"
attr unit  s
statistic UCACnet.owner[34] 	latency:stats
field count 154
field mean 39.874113789387
field stddev 0.52729839522421
field sum 6140.6135235656
field sqrsum 244894.06304574
field min 38.007168291211
field max 41.439954609394
attr interpolationmode  none
attr title  "Latency time of file print, stats"
attr unit  s
statistic UCACnet.owner[35] 	latency:stats
field count 156
field mean 39.80174179966
field stddev 0.52920551839958
field sum 6209.071720747
field sqrsum 247175.27850926
field min 38.444097074781
field max 41.395101513565
attr interpolationmode  none
attr title  "Latency time of file print, stats"
attr unit  s
statistic UCACnet.owner[36] 	latency:stats
field count 151
field mean 39.882210338299
field stddev 0.58317061863219
field sum 6022.2137610832
field sqrsum 240230.20911729
field min 38.442662390907
field max 41.916988657407
attr interpolationmode  none
attr title  "Latency time of file print, stats"
attr unit  s
statistic UCACnet.owner[37] 	latency:stats
field count 155
field mean 39.78281852102
field stddev 0.89357796477267
field sum 6166.3368707581
field sqrsum 245437.22683203
field min 30.618522707131
field max 41.263088078023
attr interpolationmode  none
attr title  "Latency time of file print, stats"
attr unit  s
statistic UCACnet.owner[38] 	latency:stats
field count 150
field mean 39.913414714395
field stddev 0.54577096283927
field sum 5987.0122071593
field sqrsum 239006.48315013
field min 38.309382747861
field max 41.225688664362
attr interpolationmode  none
attr title  "Latency time of file print, stats"
attr unit  s
statistic UCACnet.owner[39] 	latency:stats
field count 155
field mean 39.838597091141
field stddev 0.53323009355524
field sum 6174.9825491269
field sqrsum 246046.42930673
field min 38.481580944303
field max 41.509924381283
attr interpolationmode  none
attr title  "Latency time of file print, stats"
attr unit  s
statistic UCACnet.owner[40] 	latency:stats
field count 153
field mean 39.818835520053
field stddev 0.53053870570858
field sum 6092.2818345682
field sqrsum 242630.35195285
field min 38.276394048954
field max 41.366679289322
attr interpolationmode  none
attr title  "Latency time of file print, stats"
attr unit  s
statistic UCACnet.owner[41] 	latency:stats
field count 157
field mean 39.840607397249
field stddev 0.52555609968656
field sum 6254.9753613681
field sqrsum 249245.10628911
field min 38.364193507481
field max 41.42719013776
attr interpolationmode  none
attr title  "Latency time of file print, stats"
attr unit  s
statistic UCACnet.owner[42] 	latency:stats
field count 154
field mean 39.928034765507
field stddev 0.54951606049047
field sum 6148.9173538881
field sqrsum 245560.38696509
field min 38.326393244368
field max 41.846435673165
attr interpolationmode  none
attr title  "Latency time of file print, stats"
attr unit  s
statistic UCACnet.owner[43] 	latency:stats
field count 151
field mean 39.895956039783
field stddev 0.53617071895277
field sum 6024.2893620073
field sqrsum 240387.90541356
field min 38.460722936341
field max 41.828810494855
attr interpolationmode  none
attr title  "Latency time of file print, stats"
attr unit  s
statistic UCACnet.owner[44] 	latency:stats
field count 155
field mean 39.866920570552
field stddev 0.52796914269244
field sum 6179.3726884355
field sqrsum 246395.4878637
field min 38.544200642042
field max 41.227743325022
attr interpolationmode  none
attr title  "Latency time of file print, stats"
attr unit  s
statistic UCACnet.owner[45] 	latency:stats
field count 155
field mean 39.8870858243
field stddev 0.50348278950263
field sum 6182.4983027666
field sqrsum 246640.87862862
field min 38.516415950943
field max 41.154392125943
attr interpolationmode  none
attr title  "Latency time of file print, stats"
attr unit  s
statistic UCACnet.owner[46] 	latency:stats
field count 153
field mean 39.896571594181
field stddev 0.51895442806123
field sum 6104.1754539097
field sqrsum 243576.60870251
field min 38.545515273442
field max 41.955471503879
attr interpolationmode  none
attr title  "Latency time of file print, stats"
attr unit  s
statistic UCACnet.owner[47] 	latency:stats
field count 156
field mean 39.937360301437
field stddev 0.58333617565846
field sum 6230.2282070242
field sqrsum 248871.61223364
field min 38.154116529766
field max 42.049441826678
attr interpolationmode  none
attr title  "Latency time of file print, stats"
attr unit  s
statistic UCACnet.owner[48] 	latency:stats
field count 156
field mean 39.792320306008
field stddev 1.0265976325797
field sum 6207.6019677373
field sqrsum 247178.24075079
field min 28.8480871494
field max 41.407523466784
attr interpolationmode  none
attr title  "Latency time of file print, stats"
attr unit  s
statistic UCACnet.owner[49] 	latency:stats
field count 155
field mean 39.901902263754
field stddev 0.54845928327163
field sum 6184.7948508818
field sqrsum 246831.40402941
field min 38.530244630076
field max 42.168554221544
attr interpolationmode  none
attr title  "Latency time of file print, stats"
attr unit  s
statistic UCACnet.owner[50] 	latency:stats
field count 154
field mean 39.867571365054
field stddev 0.56220021023141
field sum 6139.6059902183
field sqrsum 244819.53853702
field min 38.388034536215
field max 41.910512500288
attr interpolationmode  none
attr title  "Latency time of file print, stats"
attr unit  s
statistic UCACnet.owner[51] 	latency:stats
field count 156
field mean 39.901709686594
field stddev 0.53393583499525
field sum 6224.6667111087
field sqrsum 248419.03256123
field min 38.605634615912
field max 41.683619293359
attr interpolationmode  none
attr title  "Latency time of file print, stats"
attr unit  s
statistic UCACnet.owner[52] 	latency:stats
field count 153
field mean 39.83571456219
field stddev 0.91645852171399
field sum 6094.8643280151
field sqrsum 242920.93989183
field min 30.77553443878
field max 41.38475445179
attr interpolationmode  none
attr title  "Latency time of file print, stats"
attr unit  s
statistic UCACnet.owner[53] 	latency:stats
field count 159
field mean 39.91161735257
field stddev 0.5525272281952
field sum 6345.9471590587
field sqrsum 253325.24999337
field min 38.340698019267
field max 41.458703038678
attr interpolationmode  none
attr title  "Latency time of file print, stats"
attr unit  s
statistic UCACnet.owner[54] 	latency:stats
field count 155
field mean 39.89930054041
field stddev 0.50830494822552
field sum 6184.3915837635
field sqrsum 246792.6880439
field min 38.729456005655
field max 41.177384954652
attr interpolationmode  none
attr title  "Latency time of file print, stats"
attr unit  s
statistic UCACnet.owner[55] 	latency:stats
field count 154
field mean 39.934748787497
field stddev 0.53783186914233
field sum 6149.9513132745
field sqrsum 245641.01800823
field min 38.496041314095
field max 42.049184442843
attr interpolationmode  none
attr title  "Latency time of file print, stats"
attr unit  s
statistic UCACnet.owner[56] 	latency:stats
field count 154
field mean 39.850204486508
field stddev 0.57293900330495
field sum 6136.9314909223
field sqrsum 244608.19847547
field min 37.980063537874
field max 41.512958848862
attr interpolationmode  none
attr title  "Latency time of file print, stats"
attr unit  s
statistic UCACnet.owner[57] 	latency:stats
field count 156
field mean 39.800722701565
field stddev 1.1070325922259
field sum 6208.9127414441
field sqrsum 247309.17008027
field min 27.991369637454
field max 41.320051106603
attr interpolationmode  none
attr title  "Latency time of file print, stats"
attr unit  s
statistic UCACnet.owner[58] 	latency:stats
field count 154
field mean 39.867207970248
field stddev 0.5503814677054
field sum 6139.5500274182
field sqrsum 244813.0645101
field min 38.38326986978
field max 41.553527307624
attr interpolationmode  none
attr title  "Latency time of file print, stats"
attr unit  s
statistic UCACnet.owner[59] 	latency:stats
field count 154
field mean 39.908869117357
field stddev 0.47855481546811
field sum 6145.965844073
field sqrsum 245313.5857217
field min 38.913928952041
field max 40.999576067188
attr interpolationmode  none
attr title  "Latency time of file print, stats"
attr unit  s
statistic UCACnet.owner[60] 	latency:stats
field count 154
field mean 39.828321741435
field stddev 0.62548160381694
field sum 6133.561548181
field sqrsum 244349.32052906
field min 36.044027722255
field max 41.443873926712
attr interpolationmode  none
attr title  "Latency time of file print, stats"
attr unit  s
statistic UCACnet.owner[61] 	latency:stats
field count 153
field mean 39.834033218365
field stddev 0.78334830949034
field sum 6094.6070824099
field sqrsum 242866.05342885
field min 32.978798423476
field max 41.529314286035
attr interpolationmode  none
attr title  "Latency time of file print, stats"
attr unit  s
statistic UCACnet.owner[62] 	latency:stats
field count 158
field mean 39.853670214644
field stddev 0.57501074530116
field sum 6296.8798939137
field sqrsum 251005.68473834
field min 38.502472032353
field max 41.974282986264
attr interpolationmode  none
attr title  "Latency time of file print, stats"
attr unit  s
statistic UCACnet.owner[63] 	latency:stats
field count 155
field mean 39.889564791558
field stddev 0.55237922906433
field sum 6182.8825426915
field sqrsum 246679.48269844
field min 38.502530181116
field max 42.107929397541
attr interpolationmode  none
attr title  "Latency time of file print, stats"
attr unit  s
statistic UCACnet.owner[64] 	latency:stats
field count 153
field mean 39.874498518761
field stddev 0.54393823253531
field sum 6100.7982733705
field sqrsum 243311.2437725
field min 38.39366856519
field max 41.177527757143
attr interpolationmode  none
attr title  "Latency time of file print, stats"
attr unit  s
statistic UCACnet.owner[65] 	latency:stats
field count 156
field mean 39.838782725849
field stddev 0.7145004128966
field sum 6214.8501052324
field sqrsum 247671.19219628
field min 34.488346336415
field max 41.324242205378
attr interpolationmode  none
attr title  "Latency time of file print, stats"
attr unit  s
statistic UCACnet.owner[66] 	latency:stats
field count 156
field mean 39.88875008093
field stddev 0.56199928766018
field sum 6222.6450126251
field sqrsum 248262.48744685
field min 38.411717157127
field max 41.463484187658
attr interpolationmode  none
attr title  "Latency time of file print, stats"
attr unit  s
statistic UCACnet.owner[67] 	latency:stats
field count 154
field mean 39.775644536717
field stddev 0.94361860556422
field sum 6125.4492586544
field sqrsum 243779.92599906
field min 30.148050970858
field max 41.393715059466
attr interpolationmode  none
attr title  "Latency time of file print, stats"
attr unit  s
statistic UCACnet.owner[68] 	latency:stats
field count 155
field mean 39.736739140017
field stddev 1.9390516488283
field sum 6159.1945667027
field sqrsum 245325.33568938
field min 16.67714555177
field max 41.259655378896
attr interpolationmode  none
attr title  "Latency time of file print, stats"
attr unit  s
statistic UCACnet.owner[69] 	latency:stats
field count 155
field mean 39.871254045528
field stddev 0.57546537686107
field sum 6180.0443770568
field sqrsum 246457.11807186
field min 37.635123137013
field max 41.341149591556
attr interpolationmode  none
attr title  "Latency time of file print, stats"
attr unit  s
statistic UCACnet.owner[70] 	latency:stats
field count 154
field mean 39.874813211772
field stddev 0.57541810325229
field sum 6140.7212346129
field sqrsum 244910.77143276
field min 38.510352778693
field max 41.887021853123
attr interpolationmode  none
attr title  "Latency time of file print, stats"
attr unit  s
statistic UCACnet.owner[71] 	latency:stats
field count 154
field mean 39.83774522578
field stddev 0.88690569419943
field sum 6135.0127647701
field sqrsum 244525.42554151
field min 31.213466349321
field max 41.035390098575
attr interpolationmode  none
attr title  "Latency time of file print, stats"
attr unit  s
statistic UCACnet.owner[72] 	latency:stats
field count 154
field mean 39.910845759207
field stddev 0.53397274336197
field sum 6146.270246918
field sqrsum 245346.46823342
field min 38.525536982315
field max 41.854864472031
attr interpolationmode  none
attr title  "Latency time of file print, stats"
attr unit  s
statistic UCACnet.owner[73] 	latency:stats
field count 157
field mean 39.810764540586
field stddev 0.66220602721859
field sum 6250.2900328721
field sqrsum 248897.23343335
field min 34.644411923032
field max 41.512217006657
attr interpolationmode  none
attr title  "Latency time of file print, stats"
attr unit  s
statistic UCACnet.owner[74] 	latency:stats
field count 154
field mean 39.870189021289
field stddev 0.54762363752785
field sum 6140.0091092785
field sqrsum 244849.20720157
field min 38.475886599666
field max 41.873351470098
attr interpolationmode  none
attr title  "Latency time of file print, stats"
attr unit  s
statistic UCACnet.owner[75] 	latency:stats
field count 155
field mean 39.875214439288
field stddev 0.4958115507939
field sum 6180.6582380896
field sqrsum 246492.93030023
field min 38.402979264782
field max 41.087873543168
attr interpolationmode  none
attr title  "Latency time of file print, stats"
attr unit  s
statistic UCACnet.owner[76] 	latency:stats
field count 150
field mean 39.877129911986
field stddev 0.51805388156465
field sum 5981.5694867979
field sqrsum 238567.81209641
field min 38.333461742848
field max 41.374149348572
attr interpolationmode  none
attr title  "Latency time of file print, stats"
attr unit  s
statistic UCACnet.owner[77] 	latency:stats
field count 159
field mean 39.868102730596
field stddev 0.5231379109111
field sum 6339.0283341648
field sqrsum 252768.27321591
field min 38.470015339021
field max 41.177192953525
attr interpolationmode  none
attr title  "Latency time of file print, stats"
attr unit  s
statistic UCACnet.owner[78] 	latency:stats
field count 154
field mean 39.874222590354
field stddev 0.52205327317982
field sum 6140.6302789146
field sqrsum 244894.55714838
field min 38.420851858091
field max 42.14144169678
attr interpolationmode  none
attr title  "Latency time of file print, stats"
attr unit  s
statistic UCACnet.owner[79] 	latency:stats
field count 155
field mean 39.814718321457
field stddev 0.54114097651012
field sum 6171.2813398259
field sqrsum 245752.92459533
field min 38.421722213248
field max 41.071788378014
attr interpolationmode  none
attr title  "Latency time of file print, stats"
attr unit  s
statistic UCACnet.owner[80] 	latency:stats
field count 149
field mean 39.897187614045
field stddev 0.5238907917376
field sum 5944.6809544927
field sqrsum 237216.67165816
field min 38.401618746452
field max 41.273267427371
attr interpolationmode  none
attr title  "Latency time of file print, stats"
attr unit  s
statistic UCACnet.owner[81] 	latency:stats
field count 158
field mean 39.896811223419
field stddev 0.50530115037684
field sum 6303.6961733002
field sqrsum 251537.4629286
field min 38.494184490846
field max 41.881885408813
attr interpolationmode  none
attr title  "Latency time of file print, stats"
attr unit  s
statistic UCACnet.owner[82] 	latency:stats
field count 155
field mean 39.876882384944
field stddev 0.5841011453417
field sum 6180.9167696664
field sqrsum 246528.23187391
field min 38.182475662363
field max 41.331286565744
attr interpolationmode  none
attr title  "Latency time of file print, stats"
attr unit  s
statistic UCACnet.owner[83] 	latency:stats
field count 157
field mean 39.900343260222
field stddev 0.508960382407
field sum 6264.3538918549
field sqrsum 249990.28093317
field min 38.487245922399
field max 41.344216235906
attr interpolationmode  none
attr title  "Latency time of file print, stats"
attr unit  s
statistic UCACnet.owner[84] 	latency:stats
field count 154
field mean 39.85400779378
field stddev 0.55050206571076
field sum 6137.5172002422
field sqrsum 244651.02536914
field min 38.426962708626
field max 42.11975324921
attr interpolationmode  none
attr title  "Latency time of file print, stats"
attr unit  s
statistic UCACnet.owner[85] 	latency:stats
field count 156
field mean 39.780743900622
field stddev 1.13752453064
field sum 6205.7960484971
field sqrsum 247071.74742371
field min 27.377218986029
field max 41.487287431416
attr interpolationmode  none
attr title  "Latency time of file print, stats"
attr unit  s
statistic UCACnet.owner[86] 	latency:stats
field count 156
field mean 39.74492095343
field stddev 1.4439380578383
field sum 6200.2076687351
field sqrsum 246749.93204153
field min 23.165678339117
field max 41.247238772128
attr interpolationmode  none
attr title  "Latency time of file print, stats"
attr unit  s
statistic UCACnet.owner[87] 	latency:stats
field count 151
field mean 39.858736710525
field stddev 0.5610019111714
field sum 6018.6692432892
field sqrsum 239943.76118765
field min 38.487350563982
field max 41.354076919932
attr interpolationmode  none
attr title  "Latency time of file print, stats"
attr unit  s
statistic UCACnet.owner[88] 	latency:stats
field count 150
field mean 39.83608432134
field stddev 0.58914994532977
field sum 5975.412648201
field sqrsum 238088.75965959
field min 38.480432343616
field max 41.989706568271
attr interpolationmode  none
attr title  "Latency time of file print, stats"
attr unit  s
statistic UCACnet.owner[89] 	latency:stats
field count 153
field mean 39.883913604878
field stddev 0.54509918942361
field sum 6102.2387815463
field sqrsum 243426.32859473
field min 37.995260602865
field max 41.972489928905
attr interpolationmode  none
attr title  "Latency time of file print, stats"
attr unit  s
statistic UCACnet.owner[90] 	latency:stats
field count 151
field mean 39.894342136996
field stddev 0.56943281847305
field sum 6024.0456626864
field sqrsum 240373.97677631
field min 38.343036529336
field max 42.014856786908
attr interpolationmode  none
attr title  "Latency time of file print, stats"
attr unit  s
statistic UCACnet.owner[91] 	latency:stats
field count 156
field mean 39.785347211516
field stddev 0.80555040132361
field sum 6206.5141649964
field sqrsum 247028.90230218
field min 32.214570583602
field max 41.14867469763
attr interpolationmode  none
attr title  "Latency time of file print, stats"
attr unit  s
statistic UCACnet.owner[92] 	latency:stats
field count 151
field mean 39.844434302858
field stddev 0.69042077334371
field sum 6016.5095797316
field sqrsum 239795.92280877
field min 34.120764182953
field max 41.004823777964
attr interpolationmode  none
attr title  "Latency time of file print, stats"
attr unit  s
statistic UCACnet.owner[93] 	latency:stats
field count 157
field mean 39.841386188268
field stddev 0.51874587001686
field sum 6255.0976315581
field sqrsum 249253.73955954
field min 38.38279547671
field max 40.932746885586
attr interpolationmode  none
attr title  "Latency time of file print, stats"
attr unit  s
statistic UCACnet.owner[94] 	latency:stats
field count 159
field mean 39.777956055691
field stddev 0.98498156438704
field sum 6324.6950128549
field sqrsum 251736.73009878
field min 29.630544359496
field max 41.444620909259
attr interpolationmode  none
attr title  "Latency time of file print, stats"
attr unit  s
statistic UCACnet.owner[95] 	latency:stats
field count 154
field mean 39.861090849708
field stddev 0.57296033447015
field sum 6138.607990855
field sqrsum 244741.83819658
field min 38.118205999507
field max 42.06040434587
attr interpolationmode  none
attr title  "Latency time of file print, stats"
attr unit  s
statistic UCACnet.owner[96] 	latency:stats
field count 154
field mean 39.827443329366
field stddev 0.55582860309954
field sum 6133.4262727223
field sqrsum 244325.9559434
field min 37.431211600954
field max 40.98930028697
attr interpolationmode  none
attr title  "Latency time of file print, stats"
attr unit  s
statistic UCACnet.owner[97] 	latency:stats
field count 152
field mean 39.908449667652
field stddev 0.56137310504377
field sum 6066.0843494832
field sqrsum 242135.60804531
field min 38.395531365503
field max 41.866215646066
attr interpolationmode  none
attr title  "Latency time of file print, stats"
attr unit  s
statistic UCACnet.owner[98] 	latency:stats
field count 154
field mean 39.890703012305
field stddev 0.52808920539481
field sum 6143.168263895
field sqrsum 245097.96913561
field min 38.442225959801
field max 41.29371444802
attr interpolationmode  none
attr title  "Latency time of file print, stats"
attr unit  s
statistic UCACnet.owner[99] 	latency:stats
field count 157
field mean 39.847864624364
field stddev 0.55396406563347
field sum 6256.1147460252
field sqrsum 249340.68615912
field min 37.69170567074
field max 41.231051666061
attr interpolationmode  none
attr title  "Latency time of file print, stats"
attr unit  s
statistic UCACnet.owner[100] 	latency:stats
field count 157
field mean 39.867214269728
field stddev 0.54800106343101
field sum 6259.1526403473
field sqrsum 249581.82706548
field min 38.25493992075
field max 41.596553308504
attr interpolationmode  none
attr title  "Latency time of file print, stats"
attr unit  s
statistic UCACnet.owner[101] 	latency:stats
field count 158
field mean 39.735125121761
field stddev 1.6731588182469
field sum 6278.1497692383
field sqrsum 249902.58190152
field min 20.02699967965
field max 41.244635814714
attr interpolationmode  none
attr title  "Latency time of file print, stats"
attr unit  s
statistic UCACnet.owner[102] 	latency:stats
field count 155
field mean 39.871350779976
field stddev 0.54998044893633
field sum 6180.0593708963
field sqrsum 246453.8967062
field min 38.486564145734
field max 41.531596140066
attr interpolationmode  none
attr title  "Latency time of file print, stats"
attr unit  s
statistic UCACnet.owner[103] 	latency:stats
field count 159
field mean 39.881357862707
field stddev 0.5289890833305
field sum 6341.1359001704
field sqrsum 252937.3231439
field min 38.307428949226
field max 41.882121192115
attr interpolationmode  none
attr title  "Latency time of file print, stats"
attr unit  s
statistic UCACnet.owner[104] 	latency:stats
field count 152
field mean 39.87397621882
field stddev 0.5477333430853
field sum 6060.8443852606
field sqrsum 241715.26666794
field min 38.17872333048
field max 41.566073981335
attr interpolationmode  none
attr title  "Latency time of file print, stats"
attr unit  s
statistic UCACnet.owner[105] 	latency:stats
field count 156
field mean 39.916413819677
field stddev 0.53596321443358
field sum 6226.9605558696
field sqrsum 248602.45915482
field min 38.295717636241
field max 41.552462091714
attr interpolationmode  none
attr title  "Latency time of file print, stats"
attr unit  s
statistic UCACnet.owner[106] 	latency:stats
field count 155
field mean 39.807215947692
field stddev 1.1091071194374
field sum 6170.1184718922
field sqrsum 245804.67669822
field min 27.65048016222
field max 41.032743733283
attr interpolationmode  none
attr title  "Latency time of file print, stats"
attr unit  s
statistic UCACnet.owner[107] 	latency:stats
field count 156
field mean 39.909387632715
field stddev 0.56545046356951
field sum 6225.8644707035
field sqrsum 248519.9973152
field min 38.452222729913
field max 41.940567110258
attr interpolationmode  none
attr title  "Latency time of file print, stats"
attr unit  s
statistic UCACnet.owner[108] 	latency:stats
field count 157
field mean 39.79949948213
field stddev 0.70875698489472
field sum 6248.5214186944
field sqrsum 248766.38945573
field min 34.037816056025
field max 41.287425572567
attr interpolationmode  none
attr title  "Latency time of file print, stats"
attr unit  s
statistic UCACnet.owner[109] 	latency:stats
field count 153
field mean 39.859387235896
field stddev 0.56579447700961
field sum 6098.4862470921
field sqrsum 243130.58363094
field min 38.482229682498
field max 41.940638789579
attr interpolationmode  none
attr title  "Latency time of file print, stats"
attr unit  s
statistic UCACnet.owner[110] 	latency:stats
field count 155
field mean 39.805360918222
field stddev 0.8290933679781
field sum 6169.8309423244
field sqrsum 245698.20641881
field min 31.823695789524
field max 41.329324225432
attr interpolationmode  none
attr title  "Latency time of file print, stats"
attr unit  s
statistic UCACnet.owner[111] 	latency:stats
field count 156
field mean 39.868047909266
field stddev 0.51740715990725
field sum 6219.4154738454
field sqrsum 247997.44915511
field min 38.385900821687
field max 41.517553942669
attr interpolationmode  none
attr title  "Latency time of file print, stats"
attr unit  s
statistic UCACnet.owner[112] 	latency:stats
field count 156
field mean 39.866642699812
field stddev 0.56472006984495
field sum 6219.1962611707
field sqrsum 247987.90608148
field min 38.489026363467
field max 41.957404092839
attr interpolationmode  none
attr title  "Latency time of file print, stats"
attr unit  s
statistic UCACnet.owner[113] 	latency:stats
field count 156
field mean 39.881211924801
field stddev 0.58395804326003
field sum 6221.469060269
field sqrsum 248172.58216061
field min 38.45718058241
field max 41.667672707523
attr interpolationmode  none
attr title  "Latency time of file print, stats"
attr unit  s
statistic UCACnet.owner[114] 	latency:stats
field count 156
field mean 39.855444438366
field stddev 0.61271620008759
field sum 6217.449332385
field sqrsum 247857.39669221
field min 35.734025911108
field max 41.496805865162
attr interpolationmode  none
attr title  "Latency time of file print, stats"
attr unit  s
statistic UCACnet.owner[115] 	latency:stats
field count 161
field mean 39.857746789529
field stddev 0.54272637969894
field sum 6417.0972331142
field sqrsum 255818.16494897
field min 38.316987814249
field max 41.175115476866
attr interpolationmode  none
attr title  "Latency time of file print, stats"
attr unit  s
statistic UCACnet.owner[116] 	latency:stats
field count 156
field mean 39.898447533788
field stddev 0.50797596184438
field sum 6224.1578152709
field sqrsum 248374.23016917
field min 38.58894327991
field max 41.024018054365
attr interpolationmode  none
attr title  "Latency time of file print, stats"
attr unit  s
statistic UCACnet.owner[117] 	latency:stats
field count 155
field mean 39.872310636679
field stddev 0.54925006811906
field sum 6180.2081486853
field sqrsum 246465.63715187
field min 38.212230263748
field max 41.438449530245
attr interpolationmode  none
attr title  "Latency time of file print, stats"
attr unit  s
statistic UCACnet.owner[118] 	latency:stats
field count 159
field mean 39.870944026969
field stddev 0.64858066887452
field sum 6339.480100288
field sqrsum 252827.52002634
field min 35.392061158991
field max 41.425529181685
attr interpolationmode  none
attr title  "Latency time of file print, stats"
attr unit  s
statistic UCACnet.owner[119] 	latency:stats
field count 153
field mean 39.882635774101
field stddev 0.56882948474295
field sum 6102.0432734374
field sqrsum 243414.75153368
field min 38.438657920217
field max 41.906190503074
attr interpolationmode  none
attr title  "Latency time of file print, stats"
attr unit  s
statistic UCACnet.owner[120] 	latency:stats
field count 155
field mean 39.804534388205
field stddev 0.84272079986319
field sum 6169.7028301718
field sqrsum 245691.51593395
field min 31.683556682319
field max 41.264626427184
attr interpolationmode  none
attr title  "Latency time of file print, stats"
attr unit  s
statistic UCACnet.owner[121] 	latency:stats
field count 155
field mean 39.822836314839
field stddev 0.55497430716816
field sum 6172.5396288
field sqrsum 245855.46674273
field min 37.911818944556
field max 41.080918106283
attr interpolationmode  none
attr title  "Latency time of file print, stats"
attr unit  s
statistic UCACnet.owner[122] 	latency:stats
field count 154
field mean 39.788639118498
field stddev 1.0620445324838
field sum 6127.4504242486
field sqrsum 243975.48825103
field min 28.311277145856
field max 41.497271754603
attr interpolationmode  none
attr title  "Latency time of file print, stats"
attr unit  s
statistic UCACnet.owner[123] 	latency:stats
field count 155
field mean 39.919624180622
field stddev 0.53220851469301
field sum 6187.5417479964
field sqrsum 247047.961051
field min 38.3908390599
field max 41.979148228447
attr interpolationmode  none
attr title  "Latency time of file print, stats"
attr unit  s
statistic UCACnet.owner[124] 	latency:stats
field count 156
field mean 39.939069248441
field stddev 0.54675317460235
field sum 6230.4948027567
field sqrsum 248886.49892961
field min 38.325616639532
field max 42.006109272285
attr interpolationmode  none
attr title  "Latency time of file print, stats"
attr unit  s
statistic UCACnet.owner[125] 	latency:stats
field count 161
field mean 39.848259314509
field stddev 0.55319012914861
field sum 6415.569749636
field sqrsum 255698.25012486
field min 37.423272810038
field max 41.124841326312
attr interpolationmode  none
attr title  "Latency time of file print, stats"
attr unit  s
statistic UCACnet.owner[126] 	latency:stats
field count 152
field mean 39.809161965075
field stddev 0.9409226821223
field sum 6050.9926186914
field sqrsum 241018.63086651
field min 30.471708551259
field max 41.601029534711
attr interpolationmode  none
attr title  "Latency time of file print, stats"
attr unit  s
statistic UCACnet.owner[127] 	latency:stats
field count 156
field mean 39.914729067496
field stddev 0.56418451160729
field sum 6226.6977345294
field sqrsum 248586.29020422
field min 38.384475850774
field max 41.922477911055
attr interpolationmode  none
attr title  "Latency time of file print, stats"
attr unit  s
statistic UCACnet.owner[128] 	latency:stats
field count 157
field mean 39.799981606898
field stddev 0.71913169815919
field sum 6248.597112283
field sqrsum 248774.72560007
field min 33.564025278708
field max 41.210871032742
attr interpolationmode  none
attr title  "Latency time of file print, stats"
attr unit  s
statistic UCACnet.owner[129] 	latency:stats
field count 155
field mean 39.873490145363
field stddev 0.5044356662365
field sum 6180.3909725312
field sqrsum 246472.94466028
field min 38.684660226891
field max 41.571053354022
attr interpolationmode  none
attr title  "Latency time of file print, stats"
attr unit  s
statistic UCACnet.owner[130] 	latency:stats
field count 151
field mean 39.873258551598
field stddev 0.56302498631897
field sum 6020.8620412913
field sqrsum 240118.93844619
field min 38.419800030114
field max 41.493121111556
attr interpolationmode  none
attr title  "Latency time of file print, stats"
attr unit  s
statistic UCACnet.owner[131] 	latency:stats
field count 154
field mean 39.926708058702
field stddev 0.55651427565953
field sum 6148.7130410401
field sqrsum 245545.25587161
field min 38.162059161455
field max 41.942137434998
attr interpolationmode  none
attr title  "Latency time of file print, stats"
attr unit  s
statistic UCACnet.owner[132] 	latency:stats
field count 157
field mean 39.881193032848
field stddev 0.54457352389653
field sum 6261.3473061571
field sqrsum 249756.26397293
field min 38.362510253256
field max 41.573514666615
attr interpolationmode  none
attr title  "Latency time of file print, stats"
attr unit  s
statistic UCACnet.owner[133] 	latency:stats
field count 157
field mean 39.704884355462
field stddev 2.044044115322
field sum 6233.6668438075
field sqrsum 248158.80729374
field min 15.114185459472
field max 41.201979815678
attr interpolationmode  none
attr title  "Latency time of file print, stats"
attr unit  s
statistic UCACnet.owner[134] 	latency:stats
field count 155
field mean 39.79379295545
field stddev 1.1619586301898
field sum 6168.0379080948
field sqrsum 245657.54622627
field min 27.137382428531
field max 41.513915378985
attr interpolationmode  none
attr title  "Latency time of file print, stats"
attr unit  s
statistic UCACnet.owner[135] 	latency:stats
field count 155
field mean 39.941168705242
field stddev 0.51137095829564
field sum 6190.8811493125
field sqrsum 247311.29945837
field min 38.096620873944
field max 41.895811902217
attr interpolationmode  none
attr title  "Latency time of file print, stats"
attr unit  s
statistic UCACnet.owner[136] 	latency:stats
field count 152
field mean 39.8852727697
field stddev 0.53793081843776
field sum 6062.5614609944
field sqrsum 241850.61235921
field min 38.261407444513
field max 41.392642050937
attr interpolationmode  none
attr title  "Latency time of file print, stats"
attr unit  s
statistic UCACnet.owner[137] 	latency:stats
field count 150
field mean 39.968368819809
field stddev 0.53244170075302
field sum 5995.2553229713
field sqrsum 239662.81654798
field min 38.590789689746
field max 41.990687586241
attr interpolationmode  none
attr title  "Latency time of file print, stats"
attr unit  s
statistic UCACnet.owner[138] 	latency:stats
field count 159
field mean 39.786934423496
field stddev 1.1513264433222
field sum 6326.1225733359
field sqrsum 251906.46128781
field min 27.076483490691
field max 41.420658571496
attr interpolationmode  none
attr title  "Latency time of file print, stats"
attr unit  s
statistic UCACnet.owner[139] 	latency:stats
field count 151
field mean 39.83779622684
field stddev 0.55344479595913
field sum 6015.5072302528
field sqrsum 239690.49641122
field min 38.348242683206
field max 41.497925198638
attr interpolationmode  none
attr title  "Latency time of file print, stats"
attr unit  s
statistic UCACnet.owner[140] 	latency:stats
field count 156
field mean 39.87379110383
field stddev 0.57621205877243
field sum 6220.3114121975
field sqrsum 248078.86100292
field min 38.397627977023
field max 41.164901834756
attr interpolationmode  none
attr title  "Latency time of file print, stats"
attr unit  s
statistic UCACnet.owner[141] 	latency:stats
field count 153
field mean 39.840407258638
field stddev 0.52730836655902
field sum 6095.5823105717
field sqrsum 242892.74595697
field min 38.415815515916
field max 41.342651759545
attr interpolationmode  none
attr title  "Latency time of file print, stats"
attr unit  s
statistic UCACnet.owner[142] 	latency:stats
field count 158
field mean 39.901935224171
field stddev 0.53673656138462
field sum 6304.505765419
field sqrsum 251607.21019556
field min 38.358633304989
field max 41.345795420452
attr interpolationmode  none
attr title  "Latency time of file print, stats"
attr unit  s
statistic UCACnet.owner[143] 	latency:stats
field count 154
field mean 39.842085047659
field stddev 0.52937861025556
field sum 6135.6810973395
field sqrsum 244501.2050876
field min 38.532519466563
field max 40.94445903493
attr interpolationmode  none
attr title  "Latency time of file print, stats"
attr unit  s
statistic UCACnet.owner[144] 	latency:stats
field count 153
field mean 39.881279941062
field stddev 0.52975550388214
field sum 6101.8358309826
field sqrsum 243391.68034569
field min 38.533558398741
field max 41.497930946155
attr interpolationmode  none
attr title  "Latency time of file print, stats"
attr unit  s
statistic UCACnet.owner[145] 	latency:stats
field count 158
field mean 39.802127008665
field stddev 1.4646045792652
field sum 6288.736067369
field sqrsum 250641.84712945
field min 22.565561979543
field max 41.365755101559
attr interpolationmode  none
attr title  "Latency time of file print, stats"
attr unit  s
statistic UCACnet.owner[146] 	latency:stats
field count 156
field mean 39.88620419752
field stddev 0.55323057828118
field sum 6222.2478548132
field sqrsum 248229.28843594
field min 38.387666644779
field max 41.806046274767
attr interpolationmode  none
attr title  "Latency time of file print, stats"
attr unit  s
statistic UCACnet.owner[147] 	latency:stats
field count 159
field mean 39.878635515677
field stddev 0.52833119816063
field sum 6340.7030469927
field sqrsum 252902.68887325
field min 38.494134783169
field max 41.229949094453
attr interpolationmode  none
attr title  "Latency time of file print, stats"
attr unit  s
statistic UCACnet.owner[148] 	latency:stats
field count 158
field mean 39.892552827217
field stddev 0.5401302118874
field sum 6303.0233467003
field sqrsum 251489.49511082
field min 38.284008686944
field max 42.082378522257
attr interpolationmode  none
attr title  "Latency time of file print, stats"
attr unit  s
statistic UCACnet.owner[149] 	latency:stats
field count 154
field mean 39.695659851658
field stddev 1.928731360585
field sum 6113.1316171553
field sqrsum 243233.95401619
field min 16.864929962319
field max 41.386553539323
attr interpolationmode  none
attr title  "Latency time of file print, stats"
attr unit  s
statistic UCACnet.owner[150] 	latency:stats
field count 158
field mean 39.758713910016
field stddev 1.6534936683797
field sum 6281.8767977825
field sqrsum 250188.58690688
field min 20.143068253198
field max 41.321867311142
attr interpolationmode  none
attr title  "Latency time of file print, stats"
attr unit  s
statistic UCACnet.owner[151] 	latency:stats
field count 157
field mean 39.881111663505
field stddev 0.54470161405011
field sum 6261.3345311703
field sqrsum 249755.26677651
field min 38.352229640369
field max 41.545564913068
attr interpolationmode  none
attr title  "Latency time of file print, stats"
attr unit  s
statistic UCACnet.owner[152] 	latency:stats
field count 155
field mean 39.808683920839
field stddev 0.59164870770704
field sum 6170.34600773
field sqrsum 245687.26132571
field min 36.690728834143
field max 41.55977233044
attr interpolationmode  none
attr title  "Latency time of file print, stats"
attr unit  s
statistic UCACnet.owner[153] 	latency:stats
field count 151
field mean 39.901219419667
field stddev 0.55963342561155
field sum 6025.0841323698
field sqrsum 240455.1824233
field min 38.361130015327
field max 41.239963828637
attr interpolationmode  none
attr title  "Latency time of file print, stats"
attr unit  s
statistic UCACnet.owner[154] 	latency:stats
field count 153
field mean 39.807179126791
field stddev 1.0181438033984
field sum 6090.498406399
field sqrsum 242603.12678922
field min 29.078263590668
field max 41.053954820049
attr interpolationmode  none
attr title  "Latency time of file print, stats"
attr unit  s
statistic UCACnet.owner[155] 	latency:stats
field count 161
field mean 39.876845846957
field stddev 0.54550725018315
field sum 6420.1721813602
field sqrsum 256063.82889262
field min 37.994240117334
field max 41.397435034941
attr interpolationmode  none
attr title  "Latency time of file print, stats"
attr unit  s
statistic UCACnet.owner[156] 	latency:stats
field count 154
field mean 39.86680182233
field stddev 0.53581887871422
field sum 6139.4874806389
field sqrsum 244805.65726754
field min 37.031070349967
field max 41.162082020696
attr interpolationmode  none
attr title  "Latency time of file print, stats"
attr unit  s
statistic UCACnet.owner[157] 	latency:stats
field count 159
field mean 39.888015400577
field stddev 0.51493757905604
field sum 6342.1944486917
field sqrsum 253019.4452351
field min 38.388974012035
field max 41.341057264024
attr interpolationmode  none
attr title  "Latency time of file print, stats"
attr unit  s
statistic UCACnet.owner[158] 	latency:stats
field count 154
field mean 39.779712885916
field stddev 1.0353228485943
field sum 6126.0757844311
field sqrsum 243857.53551236
field min 28.932944879527
field max 41.401848994823
attr interpolationmode  none
attr title  "Latency time of file print, stats"
attr unit  s
statistic UCACnet.owner[159] 	latency:stats
field count 156
field mean 39.842822401339
field stddev 0.56251668041278
field sum 6215.4802946088
field sqrsum 247691.32339456
field min 38.48640694875
field max 42.054095978294
attr interpolationmode  none
attr title  "Latency time of file print, stats"
attr unit  s
statistic UCACnet.owner[160] 	latency:stats
field count 151
field mean 39.829898814972
field stddev 0.57136729752186
field sum 6014.3147210608
field sqrsum 239598.51586955
field min 37.453821755163
field max 41.22649701253
attr interpolationmode  none
attr title  "Latency time of file print, stats"
attr unit  s
statistic UCACnet.owner[161] 	latency:stats
field count 154
field mean 39.894037995344
field stddev 0.52866522083199
field sum 6143.681851283
field sqrsum 245139.0387045
field min 38.340751625628
field max 41.275933648251
attr interpolationmode  none
attr title  "Latency time of file print, stats"
attr unit  s
statistic UCACnet.owner[162] 	latency:stats
field count 154
field mean 39.876895037401
field stddev 0.56596796879558
field sum 6141.0418357598
field sqrsum 244934.68962537
field min 38.468084394657
field max 41.088871500686
attr interpolationmode  none
attr title  "Latency time of file print, stats"
attr unit  s
statistic UCACnet.owner[163] 	latency:stats
field count 157
field mean 39.873406911992
field stddev 0.54018897573338
field sum 6260.1248851827
field sqrsum 249658.02831098
field min 38.391572385002
field max 40.927681685895
attr interpolationmode  none
attr title  "Latency time of file print, stats"
attr unit  s
statistic UCACnet.owner[164] 	latency:stats
field count 154
field mean 39.747961472756
field stddev 1.4104069088256
field sum 6121.1860668044
field sqrsum 243609.02284113
field min 23.789857228959
field max 41.476148626178
attr interpolationmode  none
attr title  "Latency time of file print, stats"
attr unit  s
statistic UCACnet.owner[165] 	latency:stats
field count 156
field mean 39.815953326888
field stddev 0.68057065242873
field sum 6211.2887189946
field sqrsum 247380.17407932
field min 34.504876762963
field max 41.366874507811
attr interpolationmode  none
attr title  "Latency time of file print, stats"
attr unit  s
statistic UCACnet.owner[166] 	latency:stats
field count 154
field mean 39.9224896541
field stddev 0.57774751290673
field sum 6148.0634067314
field sqrsum 245497.06795285
field min 38.403201654234
field max 42.128935973129
attr interpolationmode  none
attr title  "Latency time of file print, stats"
attr unit  s
statistic UCACnet.owner[167] 	latency:stats
field count 153
field mean 39.886391937802
field stddev 0.5341952905568
field sum 6102.6179664837
field sqrsum 243454.78747832
field min 38.45294196758
field max 41.470473567309
attr interpolationmode  none
attr title  "Latency time of file print, stats"
attr unit  s
statistic UCACnet.owner[168] 	latency:stats
field count 153
field mean 39.923153612059
field stddev 0.5629131151659
field sum 6108.2425026451
field sqrsum 243908.46815144
field min 38.43296480931
field max 41.391855924078
attr interpolationmode  none
attr title  "Latency time of file print, stats"
attr unit  s
statistic UCACnet.owner[169] 	latency:stats
field count 157
field mean 39.884897061065
field stddev 0.54586427264215
field sum 6261.9288385871
field sqrsum 249802.87010821
field min 38.375449562219
field max 41.256426018709
attr interpolationmode  none
attr title  "Latency time of file print, stats"
attr unit  s
statistic UCACnet.owner[170] 	latency:stats
field count 158
field mean 39.831314032767
field stddev 0.62163116680183
field sum 6293.3476171771
field sqrsum 250732.97403043
field min 36.098682842802
field max 41.437046732676
attr interpolationmode  none
attr title  "Latency time of file print, stats"
attr unit  s
statistic UCACnet.owner[171] 	latency:stats
field count 158
field mean 39.850851780092
field stddev 0.53378503252161
field sum 6296.4345812545
field sqrsum 250963.01469498
field min 38.537549855046
field max 41.425539353212
attr interpolationmode  none
attr title  "Latency time of file print, stats"
attr unit  s
statistic UCACnet.owner[172] 	latency:stats
field count 161
field mean 39.876903261022
field stddev 0.53275423579018
field sum 6420.1814250245
field sqrsum 256062.36593603
field min 38.419710730375
field max 41.484910830136
attr interpolationmode  none
attr title  "Latency time of file print, stats"
attr unit  s
statistic UCACnet.owner[173] 	latency:stats
field count 153
field mean 39.846511101261
field stddev 0.51885796272271
field sum 6096.5161984929
field sqrsum 242965.82084726
field min 38.444007591864
field max 41.16053395029
attr interpolationmode  none
attr title  "Latency time of file print, stats"
attr unit  s
statistic UCACnet.owner[174] 	latency:stats
field count 152
field mean 39.790476725614
field stddev 1.1736687901594
field sum 6048.1524622933
field sqrsum 240866.87204663
field min 26.874328159598
field max 41.273796527358
attr interpolationmode  none
attr title  "Latency time of file print, stats"
attr unit  s
statistic UCACnet.owner[175] 	latency:stats
field count 160
field mean 39.87273654026
field stddev 0.50300081086835
field sum 6379.6378464416
field sqrsum 254413.84763414
field min 38.072802586308
field max 41.318581294828
attr interpolationmode  none
attr title  "Latency time of file print, stats"
attr unit  s
statistic UCACnet.owner[176] 	latency:stats
field count 151
field mean 39.880568853812
field stddev 0.57178745790146
field sum 6021.9658969257
field sqrsum 240208.46672221
field min 38.176167588554
field max 41.561874833038
attr interpolationmode  none
attr title  "Latency time of file print, stats"
attr unit  s
statistic UCACnet.owner[177] 	latency:stats
field count 155
field mean 39.754662771369
field stddev 1.2482831301074
field sum 6161.9727295621
field sqrsum 245207.11232914
field min 25.717126420385
field max 41.504713243617
attr interpolationmode  none
attr title  "Latency time of file print, stats"
attr unit  s
statistic UCACnet.owner[178] 	latency:stats
field count 157
field mean 39.885667562734
field stddev 0.51538631554197
field sum 6262.0498073493
field sqrsum 249807.47407368
field min 38.470916429874
field max 41.197103013082
attr interpolationmode  none
attr title  "Latency time of file print, stats"
attr unit  s
statistic UCACnet.owner[179] 	latency:stats
field count 157
field mean 39.884575274011
field stddev 0.58601991919787
field sum 6261.8783180198
field sqrsum 249805.93054969
field min 36.61142708849
field max 41.049282291153
attr interpolationmode  none
attr title  "Latency time of file print, stats"
attr unit  s
statistic UCACnet.owner[180] 	latency:stats
field count 158
field mean 39.841032396482
field stddev 0.54443654606164
field sum 6294.8831186442
field sqrsum 250841.17881294
field min 37.521229102795
field max 41.022227623573
attr interpolationmode  none
attr title  "Latency time of file print, stats"
attr unit  s
statistic UCACnet.owner[181] 	latency:stats
field count 156
field mean 39.729139642154
field stddev 2.1667639150798
field sum 6197.745784176
field sqrsum 246958.81193497
field min 13.67282373714
field max 41.274171176576
attr interpolationmode  none
attr title  "Latency time of file print, stats"
attr unit  s
statistic UCACnet.owner[182] 	latency:stats
field count 153
field mean 39.889502356084
field stddev 0.56329323968267
field sum 6103.0938604808
field sqrsum 243497.60641668
field min 38.487645084169
field max 42.022372142872
attr interpolationmode  none
attr title  "Latency time of file print, stats"
attr unit  s
statistic UCACnet.owner[183] 	latency:stats
field count 151
field mean 39.889332080712
field stddev 0.55074670814112
field sum 6023.2891441875
field sqrsum 240310.47918112
field min 38.386279095299
field max 41.403554733762
attr interpolationmode  none
attr title  "Latency time of file print, stats"
attr unit  s
statistic UCACnet.owner[184] 	latency:stats
field count 156
field mean 39.823489333194
field stddev 0.96089491326184
field sum 6212.4643359783
field sqrsum 247545.121667
field min 29.811524108173
field max 41.094281616464
attr interpolationmode  none
attr title  "Latency time of file print, stats"
attr unit  s
statistic UCACnet.owner[185] 	latency:stats
field count 153
field mean 39.862617322679
field stddev 0.53337522397689
field sum 6098.9804503699
field sqrsum 243164.56609929
field min 38.470519927082
field max 41.917024701986
attr interpolationmode  none
attr title  "Latency time of file print, stats"
attr unit  s
statistic UCACnet.owner[186] 	latency:stats
field count 151
field mean 39.86997550051
field stddev 0.57186672176267
field sum 6020.3663005771
field sqrsum 240080.91164022
field min 38.384891215656
field max 42.147493142691
attr interpolationmode  none
attr title  "Latency time of file print, stats"
attr unit  s
statistic UCACnet.owner[187] 	latency:stats
field count 154
field mean 39.885642405584
field stddev 0.55302192560317
field sum 6142.3889304599
field sqrsum 245039.92088362
field min 38.557185206664
field max 41.37400652891
attr interpolationmode  none
attr title  "Latency time of file print, stats"
attr unit  s
statistic UCACnet.owner[188] 	latency:stats
field count 153
field mean 39.92299516412
field stddev 0.5717675754844
field sum 6108.2182601104
field sqrsum 243908.05962015
field min 36.848289573519
field max 41.579161938303
attr interpolationmode  none
attr title  "Latency time of file print, stats"
attr unit  s
statistic UCACnet.owner[189] 	latency:stats
field count 156
field mean 39.835809306475
field stddev 0.60283888520998
field sum 6214.3862518101
field sqrsum 247611.43496572
field min 36.065654006157
field max 41.263748625336
attr interpolationmode  none
attr title  "Latency time of file print, stats"
attr unit  s
statistic UCACnet.owner[190] 	latency:stats
field count 156
field mean 39.818508335031
field stddev 0.76334784613247
field sum 6211.6873002648
field sqrsum 247430.44103
field min 32.895326858108
field max 41.28023632379
attr interpolationmode  none
attr title  "Latency time of file print, stats"
attr unit  s
statistic UCACnet.owner[191] 	latency:stats
field count 156
field mean 39.865484945833
field stddev 0.4919087141374
field sum 6219.01565155
field sqrsum 247961.58083314
field min 38.420306073636
field max 41.339341718945
attr interpolationmode  none
attr title  "Latency time of file print, stats"
attr unit  s
statistic UCACnet.owner[192] 	latency:stats
field count 160
field mean 39.84853639569
field stddev 0.56779422886858
field sum 6375.7658233104
field sqrsum 254116.19651611
field min 38.417812723538
field max 41.717540824188
attr interpolationmode  none
attr title  "Latency time of file print, stats"
attr unit  s
statistic UCACnet.owner[193] 	latency:stats
field count 153
field mean 39.898399871581
field stddev 0.52109156200805
field sum 6104.4551803519
field sqrsum 243599.26731906
field min 38.44143678095
field max 41.514569366359
attr interpolationmode  none
attr title  "Latency time of file print, stats"
attr unit  s
statistic UCACnet.owner[194] 	latency:stats
field count 153
field mean 39.751641203972
field stddev 1.9371108933859
field sum 6082.0011042078
field sqrsum 242339.89028585
field min 16.911706655824
field max 41.29492627449
attr interpolationmode  none
attr title  "Latency time of file print, stats"
attr unit  s
statistic UCACnet.owner[195] 	latency:stats
field count 155
field mean 39.83762488748
field stddev 0.81330774910535
field sum 6174.8318575593
field sqrsum 246092.5015869
field min 32.034308723933
field max 40.956126024389
attr interpolationmode  none
attr title  "Latency time of file print, stats"
attr unit  s
statistic UCACnet.owner[196] 	latency:stats
field count 150
field mean 39.876218541073
field stddev 0.52887483972939
field sum 5981.432781161
field sqrsum 238558.59735113
field min 38.146844299087
field max 41.49742051965
attr interpolationmode  none
attr title  "Latency time of file print, stats"
attr unit  s
statistic UCACnet.owner[197] 	latency:stats
field count 154
field mean 39.789527040391
field stddev 0.52829765904794
field sum 6127.5871642203
field sqrsum 243856.49722083
field min 38.5829025033
field max 41.126226368198
attr interpolationmode  none
attr title  "Latency time of file print, stats"
attr unit  s
statistic UCACnet.owner[198] 	latency:stats
field count 156
field mean 39.684280805132
field stddev 2.26007225561
field sum 6190.7478056005
field sqrsum 246467.10293429
field min 12.533765838857
field max 41.546418078142
attr interpolationmode  none
attr title  "Latency time of file print, stats"
attr unit  s
statistic UCACnet.owner[199] 	latency:stats
field count 153
field mean 39.880454852903
field stddev 0.88984536183795
field sum 6101.7095924942
field sqrsum 243459.31129372
field min 30.909416181475
field max 41.219643407024
attr interpolationmode  none
attr title  "Latency time of file print, stats"
attr unit  s
statistic UCACnet.owner[200] 	latency:stats
field count 150
field mean 39.894068548902
field stddev 0.58050353436893
field sum 5984.1102823354
field sqrsum 238780.71647634
field min 38.477226903219
field max 42.052489824056
attr interpolationmode  none
attr title  "Latency time of file print, stats"
attr unit  s
statistic UCACnet.owner[201] 	latency:stats
field count 153
field mean 39.898057029518
field stddev 0.55709129371129
field sum 6104.4027255162
field sqrsum 243600.98138164
field min 38.104669550998
field max 41.586000922296
attr interpolationmode  none
attr title  "Latency time of file print, stats"
attr unit  s
statistic UCACnet.owner[202] 	latency:stats
field count 155
field mean 39.862118276516
field stddev 0.60541297186252
field sum 6178.6283328601
field sqrsum 246349.65822054
field min 36.237614635234
field max 41.095874498536
attr interpolationmode  none
attr title  "Latency time of file print, stats"
attr unit  s
statistic UCACnet.owner[203] 	latency:stats
field count 157
field mean 39.909447915808
field stddev 0.5490359439634
field sum 6265.7833227819
field sqrsum 250110.97788527
field min 38.477035482861
field max 42.165744709415
attr interpolationmode  none
attr title  "Latency time of file print, stats"
attr unit  s
statistic UCACnet.owner[204] 	latency:stats
field count 153
field mean 39.832568599458
field stddev 0.56077567606229
field sum 6094.3829957171
field sqrsum 242802.72809082
field min 38.497808853901
field max 42.119252506278
attr interpolationmode  none
attr title  "Latency time of file print, stats"
attr unit  s
statistic UCACnet.owner[205] 	latency:stats
field count 158
field mean 39.878360974361
field stddev 0.5664709107694
field sum 6300.781033949
field sqrsum 251315.20011118
field min 36.821363861428
field max 41.532581864947
attr interpolationmode  none
attr title  "Latency time of file print, stats"
attr unit  s
statistic UCACnet.owner[206] 	latency:stats
field count 156
field mean 39.867122052559
field stddev 0.5597177182326
field sum 6219.2710401993
field sqrsum 247992.99664581
field min 38.092093677439
field max 40.888704378623
attr interpolationmode  none
attr title  "Latency time of file print, stats"
attr unit  s
statistic UCACnet.owner[207] 	latency:stats
field count 157
field mean 39.862585415903
field stddev 0.52646656934378
field sum 6258.4259102967
field sqrsum 249520.27547789
field min 38.522069193588
field max 41.228772704618
attr interpolationmode  none
attr title  "Latency time of file print, stats"
attr unit  s
statistic UCACnet.owner[208] 	latency:stats
field count 157
field mean 39.834990776042
field stddev 0.64594571710149
field sum 6254.0935518387
field sqrsum 249196.84930563
field min 35.4706215187
field max 40.994372790408
attr interpolationmode  none
attr title  "Latency time of file print, stats"
attr unit  s
statistic UCACnet.owner[209] 	latency:stats
field count 158
field mean 39.876272781718
field stddev 0.53087873557706
field sum 6300.4510995114
field sqrsum 251282.75435239
field min 38.416254413243
field max 42.016587150837
attr interpolationmode  none
attr title  "Latency time of file print, stats"
attr unit  s
statistic UCACnet.owner[210] 	latency:stats
field count 156
field mean 39.896450552537
field stddev 0.5449548330186
field sum 6223.8462861957
field sqrsum 248355.40684815
field min 38.383405266823
field max 41.572901565491
attr interpolationmode  none
attr title  "Latency time of file print, stats"
attr unit  s
statistic UCACnet.owner[211] 	latency:stats
field count 156
field mean 39.877976207985
field stddev 0.53810594814042
field sum 6220.9642884456
field sqrsum 248124.34737713
field min 38.44141146648
field max 41.461070954409
attr interpolationmode  none
attr title  "Latency time of file print, stats"
attr unit  s
statistic UCACnet.owner[212] 	latency:stats
field count 156
field mean 39.884332914281
field stddev 0.53376978164894
field sum 6221.9559346278
field sqrsum 248202.72295255
field min 38.44469016899
field max 41.788922535922
attr interpolationmode  none
attr title  "Latency time of file print, stats"
attr unit  s
statistic UCACnet.owner[213] 	latency:stats
field count 153
field mean 39.862501092825
field stddev 0.54603273707451
field sum 6098.9626672022
field sqrsum 243165.22505244
field min 38.183353995215
field max 41.365572361525
attr interpolationmode  none
attr title  "Latency time of file print, stats"
attr unit  s
statistic UCACnet.owner[214] 	latency:stats
field count 159
field mean 39.91377114894
field stddev 0.50594803570553
field sum 6346.2896126815
field sqrsum 253344.79662501
field min 38.491949804252
field max 41.610623128136
attr interpolationmode  none
attr title  "Latency time of file print, stats"
attr unit  s
statistic UCACnet.owner[215] 	latency:stats
field count 155
field mean 39.84152274568
field stddev 0.58263246169579
field sum 6175.4360255803
field sqrsum 246091.0518078
field min 38.039541355146
field max 41.896243943592
attr interpolationmode  none
attr title  "Latency time of file print, stats"
attr unit  s
statistic UCACnet.owner[216] 	latency:stats
field count 155
field mean 39.811251661526
field stddev 0.66188136141703
field sum 6170.7440075365
field sqrsum 245732.50801112
field min 34.680631314869
field max 41.251162059029
attr interpolationmode  none
attr title  "Latency time of file print, stats"
attr unit  s
statistic UCACnet.owner[217] 	latency:stats
field count 156
field mean 39.844370169311
field stddev 0.55770714625089
field sum 6215.7217464125
field sqrsum 247709.72890895
field min 38.016364150759
field max 41.479808714846
attr interpolationmode  none
attr title  "Latency time of file print, stats"
attr unit  s
statistic UCACnet.owner[218] 	latency:stats
field count 154
field mean 39.889042239122
field stddev 0.56280373187973
field sum 6142.9125048248
field sqrsum 245083.35882641
field min 38.231621175873
field max 41.578443255908
attr interpolationmode  none
attr title  "Latency time of file print, stats"
attr unit  s
statistic UCACnet.owner[219] 	latency:stats
field count 151
field mean 39.916501957955
field stddev 0.53518953285
field sum 6027.3917956512
field sqrsum 240635.36058789
field min 38.406419517968
field max 42.134751608451
attr interpolationmode  none
attr title  "Latency time of file print, stats"
attr unit  s
statistic UCACnet.owner[220] 	latency:stats
field count 153
field mean 39.786116492344
field stddev 0.54817391083421
field sum 6087.2758233286
field sqrsum 242234.74021273
field min 38.481166412805
field max 40.971685766308
attr interpolationmode  none
attr title  "Latency time of file print, stats"
attr unit  s
statistic UCACnet.owner[221] 	latency:stats
field count 150
field mean 39.882340343642
field stddev 0.52813950324199
field sum 5982.3510515463
field sqrsum 238631.72146181
field min 38.449466492758
field max 41.247642341336
attr interpolationmode  none
attr title  "Latency time of file print, stats"
attr unit  s
statistic UCACnet.owner[222] 	latency:stats
field count 156
field mean 39.85564698557
field stddev 0.54504618019285
field sum 6217.4809297489
field sqrsum 247847.77175306
field min 38.32162150508
field max 41.384700122993
attr interpolationmode  none
attr title  "Latency time of file print, stats"
attr unit  s
statistic UCACnet.owner[223] 	latency:stats
field count 151
field mean 39.848736798142
field stddev 0.5176548782371
field sum 6017.1592565194
field sqrsum 239816.39047149
field min 38.356765411344
field max 41.019499994706
attr interpolationmode  none
attr title  "Latency time of file print, stats"
attr unit  s
statistic UCACnet.owner[224] 	latency:stats
field count 151
field mean 39.887032043745
field stddev 0.57353468409367
field sum 6022.9418386055
field sqrsum 240286.61541915
field min 38.502033096192
field max 42.140445571315
attr interpolationmode  none
attr title  "Latency time of file print, stats"
attr unit  s
statistic UCACnet.owner[225] 	latency:stats
field count 154
field mean 39.81374477438
field stddev 1.0275161085301
field sum 6131.3166952545
field sqrsum 244272.21380681
field min 28.753564770159
field max 41.099444981495
attr interpolationmode  none
attr title  "Latency time of file print, stats"
attr unit  s
statistic UCACnet.owner[226] 	latency:stats
field count 156
field mean 39.84037736489
field stddev 0.58658375123133
field sum 6215.0988689228
field sqrsum 247665.21677505
field min 37.066629911039
field max 41.531547744505
attr interpolationmode  none
attr title  "Latency time of file print, stats"
attr unit  s
statistic UCACnet.owner[227] 	latency:stats
field count 154
field mean 39.92304651357
field stddev 0.55556063272312
field sum 6148.1491630898
field sqrsum 245500.06809575
field min 38.483649230515
field max 42.028645658139
attr interpolationmode  none
attr title  "Latency time of file print, stats"
attr unit  s
statistic UCACnet.owner[228] 	latency:stats
field count 155
field mean 39.873359911931
field stddev 0.52181422918503
field sum 6180.3707863493
field sqrsum 246474.08142712
field min 38.554058586079
field max 41.715609198321
attr interpolationmode  none
attr title  "Latency time of file print, stats"
attr unit  s
statistic UCACnet.owner[229] 	latency:stats
field count 153
field mean 39.887029033854
field stddev 0.519982549205
field sum 6102.7154421797
field sqrsum 243460.286069
field min 38.39072308532
field max 41.153516958743
attr interpolationmode  none
attr title  "Latency time of file print, stats"
attr unit  s
statistic UCACnet.owner[230] 	latency:stats
field count 157
field mean 39.867587646425
field stddev 0.50729702741085
field sum 6259.2112604888
field sqrsum 249579.80016778
field min 38.511145951975
field max 41.231825397774
attr interpolationmode  none
attr title  "Latency time of file print, stats"
attr unit  s
statistic UCACnet.owner[231] 	latency:stats
field count 158
field mean 39.910439025252
field stddev 0.54506247081305
field sum 6305.8493659899
field sqrsum 251715.86024001
field min 38.35589641392
field max 42.000011075343
attr interpolationmode  none
attr title  "Latency time of file print, stats"
attr unit  s
statistic UCACnet.owner[232] 	latency:stats
field count 155
field mean 39.878044983383
field stddev 0.52691027117132
field sum 6181.0969724244
field sqrsum 246532.81881581
field min 38.021867509338
field max 41.21469961338
attr interpolationmode  none
attr title  "Latency time of file print, stats"
attr unit  s
statistic UCACnet.owner[233] 	latency:stats
field count 159
field mean 39.85649615262
field stddev 0.64921745859471
field sum 6337.1828882665
field sqrsum 252644.49976739
field min 35.49472648308
field max 41.484637167917
attr interpolationmode  none
attr title  "Latency time of file print, stats"
attr unit  s
statistic UCACnet.owner[234] 	latency:stats
field count 154
field mean 39.878472922352
field stddev 0.55581649958089
field sum 6141.2848300422
field sqrsum 244952.32739641
field min 38.422356363886
field max 41.647472980516
attr interpolationmode  none
attr title  "Latency time of file print, stats"
attr unit  s
statistic UCACnet.owner[235] 	latency:stats
field count 153
field mean 39.866767140113
field stddev 0.55237631082143
field sum 6099.6153724373
field sqrsum 243218.3238747
field min 37.409442819713
field max 41.000075282747
attr interpolationmode  none
attr title  "Latency time of file print, stats"
attr unit  s
statistic UCACnet.owner[236] 	latency:stats
field count 152
field mean 39.912421077989
field stddev 0.50455796052624
field sum 6066.6880038543
field sqrsum 242174.64754768
field min 38.549819826216
field max 41.197739394068
attr interpolationmode  none
attr title  "Latency time of file print, stats"
attr unit  s
statistic UCACnet.owner[237] 	latency:stats
field count 156
field mean 39.877242237915
field stddev 0.54204525107996
field sum 6220.8497891147
field sqrsum 248115.87498961
field min 38.028992497492
field max 41.047023724082
attr interpolationmode  none
attr title  "Latency time of file print, stats"
attr unit  s
statistic UCACnet.owner[238] 	latency:stats
field count 160
field mean 39.882217228834
field stddev 0.56684036354875
field sum 6381.1547566134
field sqrsum 254545.68814571
field min 38.354265387858
field max 42.143001907334
attr interpolationmode  none
attr title  "Latency time of file print, stats"
attr unit  s
statistic UCACnet.owner[239] 	latency:stats
field count 149
field mean 39.921312092967
field stddev 0.56637185115349
field sum 5948.275501852
field sqrsum 237510.4377313
field min 38.092450485444
field max 41.728217139413
attr interpolationmode  none
attr title  "Latency time of file print, stats"
attr unit  s
statistic UCACnet.owner[240] 	latency:stats
field count 151
field mean 39.893705215566
field stddev 0.59290146493036
field sum 6023.9494875505
field sqrsum 240370.39491187
field min 38.401941553665
field max 42.131738555774
attr interpolationmode  none
attr title  "Latency time of file print, stats"
attr unit  s
statistic UCACnet.owner[241] 	latency:stats
field count 155
field mean 39.867589771565
field stddev 0.55126686001005
field sum 6179.4764145925
field sqrsum 246407.63055328
field min 38.1857532576
field max 41.974482402416
attr interpolationmode  none
attr title  "Latency time of file print, stats"
attr unit  s
statistic UCACnet.owner[242] 	latency:stats
field count 156
field mean 39.848821397029
field stddev 0.52645645193266
field sum 6216.4161379365
field sqrsum 247759.81565158
field min 38.169727160628
field max 41.189723206978
attr interpolationmode  none
attr title  "Latency time of file print, stats"
attr unit  s
statistic UCACnet.owner[243] 	latency:stats
field count 156
field mean 39.929599519082
field stddev 0.51743670108818
field sum 6229.0175249768
field sqrsum 248763.67498431
field min 38.62642372202
field max 41.173249361158
attr interpolationmode  none
attr title  "Latency time of file print, stats"
attr unit  s
statistic UCACnet.owner[244] 	latency:stats
field count 157
field mean 39.912818350356
field stddev 0.53175610383389
field sum 6266.3124810059
field sqrsum 250150.30305137
field min 38.535146989591
field max 41.474093957484
attr interpolationmode  none
attr title  "Latency time of file print, stats"
attr unit  s
statistic UCACnet.owner[245] 	latency:stats
field count 150
field mean 39.88930973434
field stddev 0.66207494656721
field sum 5983.3964601511
field sqrsum 238738.86780432
field min 34.926258827026
field max 41.301433169411
attr interpolationmode  none
attr title  "Latency time of file print, stats"
attr unit  s
statistic UCACnet.owner[246] 	latency:stats
field count 152
field mean 39.898764571466
field stddev 0.52978861721831
field sum 6064.6122148629
field sqrsum 242012.91705087
field min 38.743048161464
field max 41.872861137327
attr interpolationmode  none
attr title  "Latency time of file print, stats"
attr unit  s
statistic UCACnet.owner[247] 	latency:stats
field count 153
field mean 39.885643038809
field stddev 0.51615817091441
field sum 6102.5033849378
field sqrsum 243442.76738188
field min 38.389948666977
field max 41.415831884097
attr interpolationmode  none
attr title  "Latency time of file print, stats"
attr unit  s
statistic UCACnet.owner[248] 	latency:stats
field count 157
field mean 39.867877406436
field stddev 0.54091175528899
field sum 6259.2567528104
field sqrsum 249588.92421866
field min 38.463500590356
field max 41.513103456475
attr interpolationmode  none
attr title  "Latency time of file print, stats"
attr unit  s
statistic UCACnet.owner[249] 	latency:stats
field count 155
field mean 39.905546601792
field stddev 0.55993616925485
field sum 6185.3597232777
field sqrsum 246878.44407721
field min 38.582382891377
field max 41.922295588842
attr interpolationmode  none
attr title  "Latency time of file print, stats"
attr unit  s
statistic UCACnet.owner[250] 	latency:stats
field count 157
field mean 39.851735030145
field stddev 0.58385083352341
field sum 6256.7223997328
field sqrsum 249394.42079147
field min 38.466323361325
field max 41.794802439715
attr interpolationmode  none
attr title  "Latency time of file print, stats"
attr unit  s
statistic UCACnet.owner[251] 	latency:stats
field count 152
field mean 39.891685444757
field stddev 0.53874296529143
field sum 6063.5361876031
field sqrsum 241928.50512015
field min 38.525171088153
field max 41.059625192101
attr interpolationmode  none
attr title  "Latency time of file print, stats"
attr unit  s
statistic UCACnet.owner[252] 	latency:stats
field count 154
field mean 39.722493955705
field stddev 1.9499298183672
field sum 6117.2640691786
field sqrsum 243574.72563678
field min 16.7590334303
field max 41.466284133322
attr interpolationmode  none
attr title  "Latency time of file print, stats"
attr unit  s
statistic UCACnet.owner[253] 	latency:stats
field count 156
field mean 39.884840270622
field stddev 0.54612422988574
field sum 6222.035082217
field sqrsum 248211.10442197
field min 38.343678498099
field max 41.277758373002
attr interpolationmode  none
attr title  "Latency time of file print, stats"
attr unit  s
statistic UCACnet.owner[254] 	latency:stats
field count 156
field mean 39.855922680737
field stddev 0.60198198542287
field sum 6217.523938195
field sqrsum 247861.3226045
field min 37.267559085083
[...]
field mean 39.751294359389
field stddev 1.3928953046197
field sum 6161.4506257053
field sqrsum 245224.42173202
field min 23.751911136847
field max 41.160436465045
attr interpolationmode  none
attr title  "Latency time of file print, stats"
attr unit  s
statistic UCACnet.owner[537] 	latency:stats
field count 153
field mean 39.857465223565
field stddev 0.53477208609281
field sum 6098.1921792054
field sqrsum 243101.95184927
field min 38.571466284408
field max 41.238768219321
attr interpolationmode  none
attr title  "Latency time of file print, stats"
attr unit  s
statistic UCACnet.owner[538] 	latency:stats
field count 154
field mean 39.855214898084
field stddev 0.54643802466604
field sum 6137.7030943049
field sqrsum 244665.16076492
field min 38.61270527907
field max 41.233804368514
attr interpolationmode  none
attr title  "Latency time of file print, stats"
attr unit  s
statistic UCACnet.owner[539] 	latency:stats
field count 156
field mean 39.892907166794
field stddev 0.52736726035519
field sum 6223.2935180199
field sqrsum 248308.37860131
field min 38.465867301837
field max 41.615173929123
attr interpolationmode  none
attr title  "Latency time of file print, stats"
attr unit  s
statistic UCACnet.owner[540] 	latency:stats
field count 156
field mean 39.852655781051
field stddev 0.53379779412573
field sum 6217.0143018439
field sqrsum 247808.69667043
field min 38.109015561069
field max 41.142736671506
attr interpolationmode  none
attr title  "Latency time of file print, stats"
attr unit  s
statistic UCACnet.owner[541] 	latency:stats
field count 157
field mean 39.88427585115
field stddev 0.54314013999409
field sum 6261.8313086305
field sqrsum 249794.62743581
field min 38.558762576768
field max 41.95271445223
attr interpolationmode  none
attr title  "Latency time of file print, stats"
attr unit  s
statistic UCACnet.owner[542] 	latency:stats
field count 156
field mean 39.854294921402
field stddev 0.55411362982334
field sum 6217.2700077387
field sqrsum 247832.50399119
field min 38.462228115588
field max 41.528542896676
attr interpolationmode  none
attr title  "Latency time of file print, stats"
attr unit  s
statistic UCACnet.owner[543] 	latency:stats
field count 157
field mean 39.885048071761
field stddev 0.5343542682193
field sum 6261.9525472665
field sqrsum 249802.82175031
field min 38.413364447803
field max 41.830712691092
attr interpolationmode  none
attr title  "Latency time of file print, stats"
attr unit  s
statistic UCACnet.owner[544] 	latency:stats
field count 152
field mean 39.807291246461
field stddev 0.52620864681304
field sum 6050.708269462
field sqrsum 240904.11755638
field min 37.967532576512
field max 41.295429579365
attr interpolationmode  none
attr title  "Latency time of file print, stats"
attr unit  s
statistic UCACnet.owner[545] 	latency:stats
field count 159
field mean 39.797084898124
field stddev 0.68844154570043
field sum 6327.7364988018
field sqrsum 251900.35103415
field min 34.550673021653
field max 41.260272316036
attr interpolationmode  none
attr title  "Latency time of file print, stats"
attr unit  s
statistic UCACnet.owner[546] 	latency:stats
field count 153
field mean 39.866648204444
field stddev 0.51795266795595
field sum 6099.5971752799
field sqrsum 243211.27257057
field min 38.620374121699
field max 41.498372401229
attr interpolationmode  none
attr title  "Latency time of file print, stats"
attr unit  s
statistic UCACnet.owner[547] 	latency:stats
field count 153
field mean 39.880825229615
field stddev 0.52037557918707
field sum 6101.7662601311
field sqrsum 243384.63400525
field min 38.441586183248
field max 41.097085428825
attr interpolationmode  none
attr title  "Latency time of file print, stats"
attr unit  s
statistic UCACnet.owner[548] 	latency:stats
field count 158
field mean 39.823613791351
field stddev 0.63802965545496
field sum 6292.1309790334
field sqrsum 250639.30588269
field min 34.995060115429
field max 41.400989955445
attr interpolationmode  none
attr title  "Latency time of file print, stats"
attr unit  s
statistic UCACnet.owner[549] 	latency:stats
field count 155
field mean 39.867362502944
field stddev 0.54437093304864
field sum 6179.4411879563
field sqrsum 246403.65822164
field min 38.29997209761
field max 41.374328271551
attr interpolationmode  none
attr title  "Latency time of file print, stats"
attr unit  s
statistic UCACnet.owner[550] 	latency:stats
field count 153
field mean 39.82261452593
field stddev 0.54111239773667
field sum 6092.8600224673
field sqrsum 242678.12203447
field min 38.099392901295
field max 40.94717014894
attr interpolationmode  none
attr title  "Latency time of file print, stats"
attr unit  s
statistic UCACnet.owner[551] 	latency:stats
field count 150
field mean 39.947917304726
field stddev 0.49554737583395
field sum 5992.187595709
field sqrsum 239412.00406084
field min 38.556250170253
field max 41.310514318311
attr interpolationmode  none
attr title  "Latency time of file print, stats"
attr unit  s
statistic UCACnet.owner[552] 	latency:stats
field count 153
field mean 39.860622240336
field stddev 0.52240918283547
field sum 6098.6752027714
field sqrsum 243138.47095003
field min 38.127177558114
field max 41.308794384916
attr interpolationmode  none
attr title  "Latency time of file print, stats"
attr unit  s
statistic UCACnet.owner[553] 	latency:stats
field count 152
field mean 39.880143958869
field stddev 0.56503198408579
field sum 6061.7818817481
field sqrsum 241792.94252398
field min 38.398089703185
field max 42.100461288075
attr interpolationmode  none
attr title  "Latency time of file print, stats"
attr unit  s
statistic UCACnet.owner[554] 	latency:stats
field count 154
field mean 39.900789449013
field stddev 0.57293070987993
field sum 6144.721575148
field sqrsum 245229.46398133
field min 38.560364393693
field max 41.868243613102
attr interpolationmode  none
attr title  "Latency time of file print, stats"
attr unit  s
statistic UCACnet.owner[555] 	latency:stats
field count 155
field mean 39.852460283488
field stddev 0.54271292439168
field sum 6177.1313439407
field sqrsum 246219.24029731
field min 38.448508209221
field max 41.193394263431
attr interpolationmode  none
attr title  "Latency time of file print, stats"
attr unit  s
statistic UCACnet.owner[556] 	latency:stats
field count 154
field mean 39.911584067841
field stddev 0.560795387507
field sum 6146.3839464475
field sqrsum 245360.03678627
field min 38.392242822759
field max 41.904194810114
attr interpolationmode  none
attr title  "Latency time of file print, stats"
attr unit  s
statistic UCACnet.owner[557] 	latency:stats
field count 152
field mean 39.88909607533
field stddev 0.57001624749285
field sum 6063.1426034502
field sqrsum 241902.34052434
field min 38.471559759075
field max 42.170026613473
attr interpolationmode  none
attr title  "Latency time of file print, stats"
attr unit  s
statistic UCACnet.owner[558] 	latency:stats
field count 154
field mean 39.879291733081
field stddev 0.52768764439953
field sum 6141.4109268945
field sqrsum 244957.72150661
field min 38.463570653245
field max 41.202578771683
attr interpolationmode  none
attr title  "Latency time of file print, stats"
attr unit  s
statistic UCACnet.owner[559] 	latency:stats
field count 153
field mean 39.931683256961
field stddev 0.52475234356939
field sum 6109.547538315
field sqrsum 244006.37262669
field min 38.518368041716
field max 41.133301564328
attr interpolationmode  none
attr title  "Latency time of file print, stats"
attr unit  s
statistic UCACnet.owner[560] 	latency:stats
field count 155
field mean 39.846435244615
field stddev 0.60602675161985
field sum 6176.1974629154
field sqrsum 246156.01160126
field min 36.963298205893
field max 41.19778831927
attr interpolationmode  none
attr title  "Latency time of file print, stats"
attr unit  s
statistic UCACnet.owner[561] 	latency:stats
field count 150
field mean 39.854239482979
field stddev 0.53150394027232
field sum 5978.1359224469
field sqrsum 238296.15268434
field min 38.033783097165
field max 41.512578385041
attr interpolationmode  none
attr title  "Latency time of file print, stats"
attr unit  s
statistic UCACnet.owner[562] 	latency:stats
field count 156
field mean 39.869839601432
field stddev 0.50401510755849
field sum 6219.6949778234
field sqrsum 248017.61597609
field min 38.37934140574
field max 41.327814262818
attr interpolationmode  none
attr title  "Latency time of file print, stats"
attr unit  s
statistic UCACnet.owner[563] 	latency:stats
field count 154
field mean 39.836314849404
field stddev 0.77912000241714
field sum 6134.7924868082
field sqrsum 244480.40032091
field min 33.393869077839
field max 41.385372848404
attr interpolationmode  none
attr title  "Latency time of file print, stats"
attr unit  s
statistic UCACnet.owner[564] 	latency:stats
field count 158
field mean 39.923711238895
field stddev 0.55779306611933
field sum 6307.9463757455
field sqrsum 251885.47751312
field min 38.352963693273
field max 41.92671197788
attr interpolationmode  none
attr title  "Latency time of file print, stats"
attr unit  s
statistic UCACnet.owner[565] 	latency:stats
field count 153
field mean 39.903406565958
field stddev 0.58180277274664
field sum 6105.2212045916
field sqrsum 243670.57506081
field min 38.323254378416
field max 42.00040641728
attr interpolationmode  none
attr title  "Latency time of file print, stats"
attr unit  s
statistic UCACnet.owner[566] 	latency:stats
field count 151
field mean 39.73488032943
field stddev 2.1186258113441
field sum 5999.9669297439
field sqrsum 239081.25423318
field min 14.697578795496
field max 41.510205082382
attr interpolationmode  none
attr title  "Latency time of file print, stats"
attr unit  s
statistic UCACnet.owner[567] 	latency:stats
field count 153
field mean 39.819529338433
field stddev 0.58755117223517
field sum 6092.3879887802
field sqrsum 242648.49515011
field min 38.519909967729
field max 41.340755394961
attr interpolationmode  none
attr title  "Latency time of file print, stats"
attr unit  s
statistic UCACnet.owner[568] 	latency:stats
field count 154
field mean 39.881443428815
field stddev 0.54400769916261
field sum 6141.7422880376
field sqrsum 244986.82710438
field min 38.207473123416
field max 41.380298101996
attr interpolationmode  none
attr title  "Latency time of file print, stats"
attr unit  s
statistic UCACnet.owner[569] 	latency:stats
field count 159
field mean 39.906048292644
field stddev 0.53421303087462
field sum 6345.0616785304
field sqrsum 253251.42836609
field min 38.329219119211
field max 41.265342197747
attr interpolationmode  none
attr title  "Latency time of file print, stats"
attr unit  s
statistic UCACnet.owner[570] 	latency:stats
field count 158
field mean 39.83469645301
field stddev 0.87753603875552
field sum 6293.8820395756
field sqrsum 250835.78146894
field min 31.073490298915
field max 41.172948541926
attr interpolationmode  none
attr title  "Latency time of file print, stats"
attr unit  s
statistic UCACnet.owner[571] 	latency:stats
field count 153
field mean 39.885918848351
field stddev 0.5344649938161
field sum 6102.5455837976
field sqrsum 243449.05715381
field min 38.452100971607
field max 41.95014194553
attr interpolationmode  none
attr title  "Latency time of file print, stats"
attr unit  s
statistic UCACnet.owner[572] 	latency:stats
field count 155
field mean 39.888335498756
field stddev 0.52951595664045
field sum 6182.6920023072
field sqrsum 246660.47249435
field min 38.107193428617
field max 41.433652677754
attr interpolationmode  none
attr title  "Latency time of file print, stats"
attr unit  s
statistic UCACnet.owner[573] 	latency:stats
field count 152
field mean 39.89226308705
field stddev 0.5333994891864
field sum 6063.6239892316
field sqrsum 241934.64520665
field min 38.36437193678
field max 41.121270749669
attr interpolationmode  none
attr title  "Latency time of file print, stats"
attr unit  s
statistic UCACnet.owner[574] 	latency:stats
field count 157
field mean 39.858483567689
field stddev 0.50861135831295
field sum 6257.7819201272
field sqrsum 249466.05277373
field min 38.519344674242
field max 41.212501954937
attr interpolationmode  none
attr title  "Latency time of file print, stats"
attr unit  s
statistic UCACnet.owner[575] 	latency:stats
field count 155
field mean 39.840716550129
field stddev 0.53735845420394
field sum 6175.3110652699
field sqrsum 246073.28589297
field min 38.640403362194
field max 42.036074274176
attr interpolationmode  none
attr title  "Latency time of file print, stats"
attr unit  s
statistic UCACnet.owner[576] 	latency:stats
field count 154
field mean 39.832884877253
field stddev 0.5327323423721
field sum 6134.264271097
field sqrsum 244388.86449079
field min 38.205922207907
field max 41.391209536264
attr interpolationmode  none
attr title  "Latency time of file print, stats"
attr unit  s
statistic UCACnet.owner[577] 	latency:stats
field count 155
field mean 39.715684306625
field stddev 2.2587087321215
field sum 6155.9310675269
field sqrsum 245272.68672228
field min 12.46226803057
field max 41.294384207281
attr interpolationmode  none
attr title  "Latency time of file print, stats"
attr unit  s
statistic UCACnet.owner[578] 	latency:stats
field count 156
field mean 39.883246975548
field stddev 0.55615174853394
field sum 6221.7865281856
field sqrsum 248192.99097171
field min 38.397959548987
field max 41.904960364233
attr interpolationmode  none
attr title  "Latency time of file print, stats"
attr unit  s
statistic UCACnet.owner[579] 	latency:stats
field count 155
field mean 39.819966803753
field stddev 0.58450317826434
field sum 6172.0948545817
field sqrsum 245825.22538973
field min 36.234852263147
field max 41.097851367668
attr interpolationmode  none
attr title  "Latency time of file print, stats"
attr unit  s
statistic UCACnet.owner[580] 	latency:stats
field count 154
field mean 39.83355848088
field stddev 0.54078924417367
field sum 6134.3680060555
field sqrsum 244398.45202246
field min 38.406376794869
field max 41.165285731179
attr interpolationmode  none
attr title  "Latency time of file print, stats"
attr unit  s
statistic UCACnet.owner[581] 	latency:stats
field count 156
field mean 39.887190320938
field stddev 0.56227624431711
field sum 6222.4016900663
field sqrsum 248243.12442412
field min 38.141700773311
field max 41.22931893727
attr interpolationmode  none
attr title  "Latency time of file print, stats"
attr unit  s
statistic UCACnet.owner[582] 	latency:stats
field count 156
field mean 39.809939070041
field stddev 0.93185056940711
field sum 6210.3504949264
field sqrsum 247368.26835659
field min 30.37058087065
field max 41.220925558453
attr interpolationmode  none
attr title  "Latency time of file print, stats"
attr unit  s
statistic UCACnet.owner[583] 	latency:stats
field count 157
field mean 39.881098480314
field stddev 0.55351252477988
field sum 6261.3324614092
field sqrsum 249756.6111854
field min 38.157801271408
field max 41.501788904055
attr interpolationmode  none
attr title  "Latency time of file print, stats"
attr unit  s
statistic UCACnet.owner[584] 	latency:stats
field count 153
field mean 39.860355191997
field stddev 0.56204963519493
field sum 6098.6343443755
field sqrsum 243141.74792137
field min 38.379779695007
field max 41.602497446358
attr interpolationmode  none
attr title  "Latency time of file print, stats"
attr unit  s
statistic UCACnet.owner[585] 	latency:stats
field count 155
field mean 39.866385563179
field stddev 0.58090099531662
field sum 6179.2897622927
field sqrsum 246397.91484898
field min 37.116865491151
field max 41.158993329807
attr interpolationmode  none
attr title  "Latency time of file print, stats"
attr unit  s
statistic UCACnet.owner[586] 	latency:stats
field count 154
field mean 39.834645501989
field stddev 0.76135276621085
field sum 6134.5354073064
field sqrsum 244455.73094875
field min 33.185498361739
field max 41.169763644879
attr interpolationmode  none
attr title  "Latency time of file print, stats"
attr unit  s
statistic UCACnet.owner[587] 	latency:stats
field count 160
field mean 39.876232233793
field stddev 0.50805511183478
field sum 6380.1971574069
field sqrsum 254459.26462561
field min 38.39431341645
field max 41.467618252602
attr interpolationmode  none
attr title  "Latency time of file print, stats"
attr unit  s
statistic UCACnet.owner[588] 	latency:stats
field count 151
field mean 39.87088875229
field stddev 0.54922001127233
field sum 6020.5042015958
field sqrsum 240088.09964764
field min 38.425567194312
field max 41.367446706671
attr interpolationmode  none
attr title  "Latency time of file print, stats"
attr unit  s
statistic UCACnet.owner[589] 	latency:stats
field count 156
field mean 39.794661368429
field stddev 1.0306429572523
field sum 6207.967173475
field sqrsum 247208.59631509
field min 29.105028871018
field max 41.380871279918
attr interpolationmode  none
attr title  "Latency time of file print, stats"
attr unit  s
statistic UCACnet.owner[590] 	latency:stats
field count 155
field mean 39.778537448783
field stddev 0.65309588172095
field sum 6165.6733045613
field sqrsum 245327.15271398
field min 34.728717460279
field max 41.537986121014
attr interpolationmode  none
attr title  "Latency time of file print, stats"
attr unit  s
statistic UCACnet.owner[591] 	latency:stats
field count 151
field mean 39.871224044305
field stddev 0.52891280983328
field sum 6020.5548306901
field sqrsum 240088.85283953
field min 38.26249856819
field max 41.371204983086
attr interpolationmode  none
attr title  "Latency time of file print, stats"
attr unit  s
statistic UCACnet.owner[592] 	latency:stats
field count 158
field mean 39.751895927278
field stddev 1.1445109526751
field sum 6280.7995565099
field sqrsum 249879.34544584
field min 27.175147606588
field max 41.4312784232
attr interpolationmode  none
attr title  "Latency time of file print, stats"
attr unit  s
statistic UCACnet.owner[593] 	latency:stats
field count 155
field mean 39.848065537968
field stddev 0.49217793752867
field sum 6176.4501583851
field sqrsum 246156.89552814
field min 38.843538602283
field max 41.589945872968
attr interpolationmode  none
attr title  "Latency time of file print, stats"
attr unit  s
statistic UCACnet.owner[594] 	latency:stats
field count 153
field mean 39.854733946538
field stddev 0.56188164151477
field sum 6097.7742938203
field sqrsum 243073.16021507
field min 38.387396942115
field max 41.456315321216
attr interpolationmode  none
attr title  "Latency time of file print, stats"
attr unit  s
statistic UCACnet.owner[595] 	latency:stats
field count 153
field mean 39.883980639692
field stddev 0.53170568763691
field sum 6102.2490378729
field sqrsum 243424.95454772
field min 38.577439417605
field max 41.523468215407
attr interpolationmode  none
attr title  "Latency time of file print, stats"
attr unit  s
statistic UCACnet.owner[596] 	latency:stats
field count 157
field mean 39.87305313065
field stddev 0.55335211403465
field sum 6260.069341512
field sqrsum 249655.84443135
field min 38.607421193942
field max 41.207550518904
attr interpolationmode  none
attr title  "Latency time of file print, stats"
attr unit  s
statistic UCACnet.owner[597] 	latency:stats
field count 154
field mean 39.836532991404
field stddev 0.56862012099165
field sum 6134.8260806762
field sqrsum 244439.6708722
field min 38.112898263291
field max 41.229506602984
attr interpolationmode  none
attr title  "Latency time of file print, stats"
attr unit  s
statistic UCACnet.owner[598] 	latency:stats
field count 153
field mean 39.887826065952
field stddev 0.53138131531952
field sum 6102.8373880906
field sqrsum 243471.83589249
field min 38.393399513861
field max 41.176934614593
attr interpolationmode  none
attr title  "Latency time of file print, stats"
attr unit  s
statistic UCACnet.owner[599] 	latency:stats
field count 151
field mean 39.909442378775
field stddev 0.58950751461317
field sum 6026.325799195
field sqrsum 240559.43010516
field min 38.383538014088
field max 41.917887640235
attr interpolationmode  none
attr title  "Latency time of file print, stats"
attr unit  s
