version 2
run Owner-500-0-20110905-21:06:09-5015
attr configname Owner-500
attr datetime 20110905-21:06:09
attr experiment Owner-500
attr inifile nocrypto.ini
attr iterationvars ""
attr iterationvars2 $repetition=0
attr measurement ""
attr network UCACnet
attr processid 5015
attr repetition 0
attr replication #0
attr resultdir results
attr runnumber 0
attr seedset 0

statistic UCACnet.owner[0] 	latency:stats
field count 172
field mean 31.73736869341
field stddev 0.61508024688319
field sum 5458.8274152665
field sqrsum 173313.51166644
field min 30.026209838974
field max 33.278018837427
attr interpolationmode  none
attr title  "Latency time of file print, stats"
attr unit  s
statistic UCACnet.owner[1] 	latency:stats
field count 177
field mean 31.695772696236
field stddev 0.56872813130507
field sum 5610.1517672338
field sqrsum 177875.0227026
field min 30.301339334035
field max 33.430403621801
attr interpolationmode  none
attr title  "Latency time of file print, stats"
attr unit  s
statistic UCACnet.owner[2] 	latency:stats
field count 174
field mean 31.713354016259
field stddev 0.65336075445515
field sum 5518.1235988291
field sqrsum 175072.0574828
field min 29.855537567043
field max 33.444340169663
attr interpolationmode  none
attr title  "Latency time of file print, stats"
attr unit  s
statistic UCACnet.owner[3] 	latency:stats
field count 178
field mean 31.66902412167
field stddev 0.55633403985919
field sum 5637.0862936573
field sqrsum 178575.80464858
field min 30.125054273881
field max 33.186322892032
attr interpolationmode  none
attr title  "Latency time of file print, stats"
attr unit  s
statistic UCACnet.owner[4] 	latency:stats
field count 169
field mean 31.742630745598
field stddev 0.62546365025384
field sum 5364.5045960061
field sqrsum 170349.21092675
field min 29.826421429941
field max 33.447776191933
attr interpolationmode  none
attr title  "Latency time of file print, stats"
attr unit  s
statistic UCACnet.owner[5] 	latency:stats
field count 173
field mean 31.734861810734
field stddev 0.57884051829993
field sum 5490.1310932569
field sqrsum 174286.18125877
field min 30.187678498099
field max 33.118406854994
attr interpolationmode  none
attr title  "Latency time of file print, stats"
attr unit  s
statistic UCACnet.owner[6] 	latency:stats
field count 175
field mean 31.664360749031
field stddev 0.60765940616811
field sum 5541.2631310805
field sqrsum 175524.80427982
field min 29.383747558279
field max 33.176953126227
attr interpolationmode  none
attr title  "Latency time of file print, stats"
attr unit  s
statistic UCACnet.owner[7] 	latency:stats
field count 174
field mean 31.723201639673
field stddev 0.57062459065367
field sum 5519.8370853032
field sqrsum 175163.23582448
field min 30.354648956053
field max 33.038279575797
attr interpolationmode  none
attr title  "Latency time of file print, stats"
attr unit  s
statistic UCACnet.owner[8] 	latency:stats
field count 176
field mean 31.704415105422
field stddev 0.60107169788299
field sum 5579.9770585543
field sqrsum 176973.13420069
field min 30.369215112361
field max 33.456636169786
attr interpolationmode  none
attr title  "Latency time of file print, stats"
attr unit  s
statistic UCACnet.owner[9] 	latency:stats
field count 171
field mean 31.703046926818
field stddev 0.59618980412657
field sum 5421.2210244859
field sqrsum 171929.64972796
field min 30.279921483292
field max 33.523943242707
attr interpolationmode  none
attr title  "Latency time of file print, stats"
attr unit  s
statistic UCACnet.owner[10] 	latency:stats
field count 172
field mean 31.692525177187
field stddev 0.58594477930477
field sum 5451.1143304761
field sqrsum 172818.28781197
field min 30.130823520395
field max 33.460414500002
attr interpolationmode  none
attr title  "Latency time of file print, stats"
attr unit  s
statistic UCACnet.owner[11] 	latency:stats
field count 182
field mean 31.693839610927
field stddev 0.56103186014049
field sum 5768.2788091887
field sqrsum 182875.87438094
field min 30.235849234053
field max 33.448278742456
attr interpolationmode  none
attr title  "Latency time of file print, stats"
attr unit  s
statistic UCACnet.owner[12] 	latency:stats
field count 174
field mean 31.706973610111
field stddev 0.56084687958875
field sum 5517.0134081593
field sqrsum 174982.2155546
field min 30.167757718163
field max 32.976698498256
attr interpolationmode  none
attr title  "Latency time of file print, stats"
attr unit  s
statistic UCACnet.owner[13] 	latency:stats
field count 176
field mean 31.706161121044
field stddev 0.62990053206108
field sum 5580.2843573038
field sqrsum 176998.83050297
field min 29.314416115265
field max 33.167972325578
attr interpolationmode  none
attr title  "Latency time of file print, stats"
attr unit  s
statistic UCACnet.owner[14] 	latency:stats
field count 171
field mean 31.707362590036
field stddev 0.60148428670043
field sum 5421.9590028961
field sqrsum 171977.52322215
field min 30.251405266823
field max 33.444603134867
attr interpolationmode  none
attr title  "Latency time of file print, stats"
attr unit  s
statistic UCACnet.owner[15] 	latency:stats
field count 173
field mean 31.619398238905
field stddev 1.2710891476332
field sum 5470.1558953306
field sqrsum 173240.93251421
field min 17.09816081571
field max 32.935425205068
attr interpolationmode  none
attr title  "Latency time of file print, stats"
attr unit  s
statistic UCACnet.owner[16] 	latency:stats
field count 172
field mean 31.703115600108
field stddev 0.59490547617579
field sum 5452.9358832185
field sqrsum 172935.57570753
field min 29.850475662363
field max 33.160480105306
attr interpolationmode  none
attr title  "Latency time of file print, stats"
attr unit  s
statistic UCACnet.owner[17] 	latency:stats
field count 171
field mean 31.722186981596
field stddev 0.60337133664459
field sum 5424.493973853
field sqrsum 172138.70180399
field min 28.642446098223
field max 33.259052605807
attr interpolationmode  none
attr title  "Latency time of file print, stats"
attr unit  s
statistic UCACnet.owner[18] 	latency:stats
field count 174
field mean 31.665000709022
field stddev 0.57718620389102
field sum 5509.7101233699
field sqrsum 174522.60886013
field min 29.88266654573
field max 33.226586146204
attr interpolationmode  none
attr title  "Latency time of file print, stats"
attr unit  s
statistic UCACnet.owner[19] 	latency:stats
field count 182
field mean 31.675287345433
field stddev 0.57485226957697
field sum 5764.9022968687
field sqrsum 182664.74915052
field min 30.287526413907
field max 33.408046197375
attr interpolationmode  none
attr title  "Latency time of file print, stats"
attr unit  s
statistic UCACnet.owner[20] 	latency:stats
field count 175
field mean 31.701333969771
field stddev 0.57250756103334
field sum 5547.73344471
field sqrsum 175927.58179992
field min 29.697876958633
field max 33.351644901496
attr interpolationmode  none
attr title  "Latency time of file print, stats"
attr unit  s
statistic UCACnet.owner[21] 	latency:stats
field count 175
field mean 31.709633418482
field stddev 0.60882138679542
field sum 5549.1858482343
field sqrsum 176027.14446423
field min 30.1883627229
field max 33.417172235047
attr interpolationmode  none
attr title  "Latency time of file print, stats"
attr unit  s
statistic UCACnet.owner[22] 	latency:stats
field count 173
field mean 31.658322542546
field stddev 0.61401965539365
field sum 5476.8897998605
field sqrsum 173453.99127756
field min 29.974100971607
field max 33.15326300361
attr interpolationmode  none
attr title  "Latency time of file print, stats"
attr unit  s
statistic UCACnet.owner[23] 	latency:stats
field count 175
field mean 31.756763874281
field stddev 0.63507410745319
field sum 5557.4336779991
field sqrsum 176556.28658641
field min 29.676107849683
field max 33.184790778903
attr interpolationmode  none
attr title  "Latency time of file print, stats"
attr unit  s
statistic UCACnet.owner[24] 	latency:stats
field count 178
field mean 31.690398846449
field stddev 0.61262670134467
field sum 5640.890994668
field sqrsum 178828.51560148
field min 29.711149574671
field max 33.423739394068
attr interpolationmode  none
attr title  "Latency time of file print, stats"
attr unit  s
statistic UCACnet.owner[25] 	latency:stats
field count 170
field mean 31.742279329029
field stddev 0.59944272638655
field sum 5396.1874859349
field sqrsum 171348.01752775
field min 29.988667024006
field max 33.297805675657
attr interpolationmode  none
attr title  "Latency time of file print, stats"
attr unit  s
statistic UCACnet.owner[26] 	latency:stats
field count 177
field mean 31.694271144631
field stddev 0.62458096960161
field sum 5609.8859925998
field sqrsum 177869.90558414
field min 30.086041314095
field max 33.266443255908
attr interpolationmode  none
attr title  "Latency time of file print, stats"
attr unit  s
statistic UCACnet.owner[27] 	latency:stats
field count 178
field mean 31.692493170133
field stddev 0.6081259150749
field sum 5641.2637842837
field sqrsum 178851.17158609
field min 30.357707970421
field max 33.496740931361
attr interpolationmode  none
attr title  "Latency time of file print, stats"
attr unit  s
statistic UCACnet.owner[28] 	latency:stats
field count 180
field mean 31.574247766469
field stddev 1.1686368092873
field sum 5683.3645979644
field sqrsum 179692.42440988
field min 18.31915395199
field max 33.089537273157
attr interpolationmode  none
attr title  "Latency time of file print, stats"
attr unit  s
statistic UCACnet.owner[29] 	latency:stats
field count 167
field mean 31.705058941043
field stddev 0.62089020810892
field sum 5294.7448431542
field sqrsum 167934.19110197
field min 30.124508209221
field max 33.160520326446
attr interpolationmode  none
attr title  "Latency time of file print, stats"
attr unit  s
statistic UCACnet.owner[30] 	latency:stats
field count 174
field mean 31.604760461185
field stddev 1.113878062222
field sum 5499.2283202461
field sqrsum 174016.43909313
field min 19.566397245398
field max 33.457051666061
attr interpolationmode  none
attr title  "Latency time of file print, stats"
attr unit  s
statistic UCACnet.owner[31] 	latency:stats
field count 174
field mean 31.736662698441
field stddev 0.58365150060185
field sum 5522.1793095287
field sqrsum 175314.47439665
field min 30.08370199973
field max 33.46388242356
attr interpolationmode  none
attr title  "Latency time of file print, stats"
attr unit  s
statistic UCACnet.owner[32] 	latency:stats
field count 177
field mean 31.604608099261
field stddev 1.5411228710445
field sum 5594.0156335692
field sqrsum 177214.68230794
field min 12.88775162265
field max 33.444190216484
attr interpolationmode  none
attr title  "Latency time of file print, stats"
attr unit  s
statistic UCACnet.owner[33] 	latency:stats
field count 174
field mean 31.65976271512
field stddev 0.63733989333759
field sum 5508.7987124309
field sqrsum 174477.53305108
field min 29.849095915649
field max 33.134938101886
attr interpolationmode  none
attr title  "Latency time of file print, stats"
attr unit  s
statistic UCACnet.owner[34] 	latency:stats
field count 171
field mean 31.68880602878
field stddev 0.62621426900996
field sum 5418.7858309214
field sqrsum 171781.51764039
field min 30.302303195699
field max 33.243080281542
attr interpolationmode  none
attr title  "Latency time of file print, stats"
attr unit  s
statistic UCACnet.owner[35] 	latency:stats
field count 173
field mean 31.678675297253
field stddev 0.60692007956349
field sum 5480.4108264247
field sqrsum 173675.51160693
field min 29.985461742848
field max 33.096832736079
attr interpolationmode  none
attr title  "Latency time of file print, stats"
attr unit  s
statistic UCACnet.owner[36] 	latency:stats
field count 170
field mean 31.763195079919
field stddev 0.5951946832613
field sum 5399.7431635862
field sqrsum 171572.96487061
field min 29.829649230515
field max 32.96453260015
attr interpolationmode  none
attr title  "Latency time of file print, stats"
attr unit  s
statistic UCACnet.owner[37] 	latency:stats
field count 170
field mean 31.652724360394
field stddev 0.88513849975537
field sum 5380.9631412669
field sqrsum 170454.54956163
field min 23.457698969991
field max 33.006258118699
attr interpolationmode  none
attr title  "Latency time of file print, stats"
attr unit  s
statistic UCACnet.owner[38] 	latency:stats
field count 173
field mean 31.704702244936
field stddev 0.53958576324626
field sum 5484.913488374
field sqrsum 173947.62726903
field min 30.202493544799
field max 33.420595001825
attr interpolationmode  none
attr title  "Latency time of file print, stats"
attr unit  s
statistic UCACnet.owner[39] 	latency:stats
field count 171
field mean 31.701046860731
field stddev 0.5655001027481
field sum 5420.879013185
field sqrsum 171901.90398559
field min 30.062815072163
field max 32.974667058352
attr interpolationmode  none
attr title  "Latency time of file print, stats"
attr unit  s
statistic UCACnet.owner[40] 	latency:stats
field count 178
field mean 31.693971403866
field stddev 0.60895429220233
field sum 5641.5269098881
field sqrsum 178868.02863954
field min 29.646786148004
field max 33.472330446519
attr interpolationmode  none
attr title  "Latency time of file print, stats"
attr unit  s
statistic UCACnet.owner[41] 	latency:stats
field count 176
field mean 31.725872764746
field stddev 0.56560452046446
field sum 5583.7536065953
field sqrsum 177205.44045541
field min 29.9773106417
field max 33.10839595713
attr interpolationmode  none
attr title  "Latency time of file print, stats"
attr unit  s
statistic UCACnet.owner[42] 	latency:stats
field count 177
field mean 31.693670608846
field stddev 0.5818039250364
field sum 5609.7796977657
field sqrsum 177854.08519124
field min 29.812999690483
field max 32.941941712092
attr interpolationmode  none
attr title  "Latency time of file print, stats"
attr unit  s
statistic UCACnet.owner[43] 	latency:stats
field count 177
field mean 31.767271125903
field stddev 0.58102428632594
field sum 5622.8069892848
field sqrsum 178680.64982018
field min 30.056656721088
field max 33.325800377341
attr interpolationmode  none
attr title  "Latency time of file print, stats"
attr unit  s
statistic UCACnet.owner[44] 	latency:stats
field count 173
field mean 31.694385506703
field stddev 0.5719406118316
field sum 5483.1286926596
field sqrsum 173840.65853093
field min 29.778503468229
field max 33.060769296815
attr interpolationmode  none
attr title  "Latency time of file print, stats"
attr unit  s
statistic UCACnet.owner[45] 	latency:stats
field count 171
field mean 31.733208416242
field stddev 0.56528395003065
field sum 5426.3786391774
field sqrsum 172250.72711297
field min 30.196273051925
field max 33.314148626178
attr interpolationmode  none
attr title  "Latency time of file print, stats"
attr unit  s
statistic UCACnet.owner[46] 	latency:stats
field count 177
field mean 31.724853153403
field stddev 0.60692563482611
field sum 5615.2990081522
field sqrsum 178209.36758189
field min 30.036896186467
field max 33.143416427028
attr interpolationmode  none
attr title  "Latency time of file print, stats"
attr unit  s
statistic UCACnet.owner[47] 	latency:stats
field count 173
field mean 31.710110257473
field stddev 0.58881365122044
field sum 5485.8490745429
field sqrsum 174016.51167034
field min 30.060636656188
field max 33.474618089538
attr interpolationmode  none
attr title  "Latency time of file print, stats"
attr unit  s
statistic UCACnet.owner[48] 	latency:stats
field count 170
field mean 31.655907854154
field stddev 0.97361657674901
field sum 5381.5043352062
field sqrsum 170516.60539333
field min 22.01726341226
field max 33.469680524294
attr interpolationmode  none
attr title  "Latency time of file print, stats"
attr unit  s
statistic UCACnet.owner[49] 	latency:stats
field count 168
field mean 31.688567441613
field stddev 0.6625735143382
field sum 5323.6793301909
field sqrsum 168773.08510381
field min 29.992261626275
field max 33.353730484404
attr interpolationmode  none
attr title  "Latency time of file print, stats"
attr unit  s
statistic UCACnet.owner[50] 	latency:stats
field count 172
field mean 31.664778953799
field stddev 0.60412881178554
field sum 5446.3419800535
field sqrsum 172519.62505242
field min 30.047228197633
field max 33.461688763148
attr interpolationmode  none
attr title  "Latency time of file print, stats"
attr unit  s
statistic UCACnet.owner[51] 	latency:stats
field count 173
field mean 31.721646087945
field stddev 0.61912577900724
field sum 5487.8447732144
field sqrsum 174149.40015908
field min 30.149825948435
field max 33.332795556219
attr interpolationmode  none
attr title  "Latency time of file print, stats"
attr unit  s
statistic UCACnet.owner[52] 	latency:stats
field count 172
field mean 31.626720280528
field stddev 0.83962477187489
field sum 5439.7958882509
field sqrsum 172163.45276942
field min 23.63271070164
field max 33.182042534564
attr interpolationmode  none
attr title  "Latency time of file print, stats"
attr unit  s
statistic UCACnet.owner[53] 	latency:stats
field count 175
field mean 31.676416730665
field stddev 0.59592892548572
field sum 5543.3729278664
field sqrsum 175655.98380004
field min 30.12618650002
field max 33.088653377958
attr interpolationmode  none
attr title  "Latency time of file print, stats"
attr unit  s
statistic UCACnet.owner[54] 	latency:stats
field count 174
field mean 31.717480327028
field stddev 0.60465795952292
field sum 5518.8415769029
field sqrsum 175106.99988931
field min 29.606635919464
field max 33.143297547733
attr interpolationmode  none
attr title  "Latency time of file print, stats"
attr unit  s
statistic UCACnet.owner[55] 	latency:stats
field count 172
field mean 31.724993479416
field stddev 0.59302296982413
field sum 5456.6988784596
field sqrsum 173173.87297578
field min 30.122111801658
field max 33.100360705703
attr interpolationmode  none
attr title  "Latency time of file print, stats"
attr unit  s
statistic UCACnet.owner[56] 	latency:stats
field count 175
field mean 31.735875252007
field stddev 0.61699206927652
field sum 5553.7781691012
field sqrsum 176320.24933507
field min 29.656891988059
field max 33.126829491725
attr interpolationmode  none
attr title  "Latency time of file print, stats"
attr unit  s
statistic UCACnet.owner[57] 	latency:stats
field count 175
field mean 31.68949650717
field stddev 1.0027683698796
field sum 5545.6618887547
field sqrsum 175914.19777987
field min 21.260545900314
field max 33.082016180037
attr interpolationmode  none
attr title  "Latency time of file print, stats"
attr unit  s
statistic UCACnet.owner[58] 	latency:stats
field count 177
field mean 31.682034832052
field stddev 0.5856565100172
field sum 5607.7201652732
field sqrsum 177724.35246898
field min 30.012644190034
field max 33.024390491912
attr interpolationmode  none
attr title  "Latency time of file print, stats"
attr unit  s
statistic UCACnet.owner[59] 	latency:stats
field count 168
field mean 31.727840044362
field stddev 0.60944397169983
field sum 5330.2771274528
field sqrsum 169180.20755837
field min 29.66290493964
field max 33.457121596607
attr interpolationmode  none
attr title  "Latency time of file print, stats"
attr unit  s
statistic UCACnet.owner[60] 	latency:stats
field count 176
field mean 31.704528385579
field stddev 0.6483944371478
field sum 5579.9969958619
field sqrsum 176984.74583232
field min 28.427203985115
field max 33.243375669085
attr interpolationmode  none
attr title  "Latency time of file print, stats"
attr unit  s
statistic UCACnet.owner[61] 	latency:stats
field count 173
field mean 31.68911162488
field stddev 0.74567929518243
field sum 5482.2163111043
field sqrsum 173822.20310346
field min 25.703974686336
field max 33.238313827905
attr interpolationmode  none
attr title  "Latency time of file print, stats"
attr unit  s
statistic UCACnet.owner[62] 	latency:stats
field count 177
field mean 31.717348741611
field stddev 0.52811056166248
field sum 5613.9707272652
field sqrsum 178109.35391657
field min 30.043685456121
field max 33.319128707859
attr interpolationmode  none
attr title  "Latency time of file print, stats"
attr unit  s
statistic UCACnet.owner[63] 	latency:stats
field count 170
field mean 31.70473440436
field stddev 0.61340675394425
field sum 5389.8048487412
field sqrsum 170945.92048661
field min 30.132242822759
field max 33.301105660401
attr interpolationmode  none
attr title  "Latency time of file print, stats"
attr unit  s
statistic UCACnet.owner[64] 	latency:stats
field count 177
field mean 31.687602444652
field stddev 0.61262552208933
field sum 5608.7056327033
field sqrsum 177792.48888352
field min 30.179226903219
field max 33.421003334849
attr interpolationmode  none
attr title  "Latency time of file print, stats"
attr unit  s
statistic UCACnet.owner[65] 	latency:stats
field count 173
field mean 31.675496637466
field stddev 0.67601440133985
field sum 5479.8609182816
field sqrsum 173655.91931179
field min 26.923522599275
field max 33.040477535679
attr interpolationmode  none
attr title  "Latency time of file print, stats"
attr unit  s
statistic UCACnet.owner[66] 	latency:stats
field count 176
field mean 31.716911722088
field stddev 0.59646614552983
field sum 5582.1764630876
field sqrsum 177111.65817285
field min 29.991382747861
field max 33.242660450518
attr interpolationmode  none
attr title  "Latency time of file print, stats"
attr unit  s
statistic UCACnet.owner[67] 	latency:stats
field count 175
field mean 31.641801373039
field stddev 0.89419172673258
field sum 5537.3152402819
field sqrsum 175349.75569179
field min 23.111227233718
field max 33.173145114447
attr interpolationmode  none
attr title  "Latency time of file print, stats"
attr unit  s
statistic UCACnet.owner[68] 	latency:stats
field count 177
field mean 31.5597682096
field stddev 1.5707544282014
field sum 5586.0789730992
field sqrsum 176729.5970189
field min 12.52032181463
field max 33.207672948207
attr interpolationmode  none
attr title  "Latency time of file print, stats"
attr unit  s
statistic UCACnet.owner[69] 	latency:stats
field count 175
field mean 31.674062333139
field stddev 0.64756539849501
field sum 5542.9609082993
field sqrsum 175641.05464411
field min 29.687307324905
field max 33.380581294828
attr interpolationmode  none
attr title  "Latency time of file print, stats"
attr unit  s
statistic UCACnet.owner[70] 	latency:stats
field count 178
field mean 31.695215696699
field stddev 0.62581928401384
field sum 5641.7483940124
field sqrsum 178885.75426512
field min 29.966075362155
field max 33.512277684941
attr interpolationmode  none
attr title  "Latency time of file print, stats"
attr unit  s
statistic UCACnet.owner[71] 	latency:stats
field count 173
field mean 31.669987789247
field stddev 0.82709563096476
field sum 5478.9078875397
field sqrsum 173634.60889222
field min 24.132642612181
field max 33.078946235347
attr interpolationmode  none
attr title  "Latency time of file print, stats"
attr unit  s
statistic UCACnet.owner[72] 	latency:stats
field count 175
field mean 31.694710786113
field stddev 0.6067381259907
field sum 5546.5743875697
field sqrsum 175861.1258884
field min 30.152246502575
field max 33.430040734891
attr interpolationmode  none
attr title  "Latency time of file print, stats"
attr unit  s
statistic UCACnet.owner[73] 	latency:stats
field count 174
field mean 31.682626145783
field stddev 0.70103093192587
field sum 5512.7769493662
field sqrsum 174744.27098744
field min 27.221588185892
field max 33.508511318013
attr interpolationmode  none
attr title  "Latency time of file print, stats"
attr unit  s
statistic UCACnet.owner[74] 	latency:stats
field count 173
field mean 31.753436260042
field stddev 0.61536475910873
field sum 5493.3444729873
field sqrsum 174497.69546878
field min 29.589431818767
field max 33.414527732958
attr interpolationmode  none
attr title  "Latency time of file print, stats"
attr unit  s
statistic UCACnet.owner[75] 	latency:stats
field count 178
field mean 31.667343324778
field stddev 0.62868371592446
field sum 5636.7871118105
field sqrsum 178572.03076739
field min 29.930952484855
field max 33.219043688789
attr interpolationmode  none
attr title  "Latency time of file print, stats"
attr unit  s
statistic UCACnet.owner[76] 	latency:stats
field count 171
field mean 31.602016610076
field stddev 0.61151739169421
field sum 5403.944840323
field sqrsum 170839.12670228
field min 30.030856396339
field max 33.451376824616
attr interpolationmode  none
attr title  "Latency time of file print, stats"
attr unit  s
statistic UCACnet.owner[77] 	latency:stats
field count 176
field mean 31.753589079582
field stddev 0.59131226359413
field sum 5588.6316780064
field sqrsum 177520.30260433
field min 30.260330141129
field max 33.408655438473
attr interpolationmode  none
attr title  "Latency time of file print, stats"
attr unit  s
statistic UCACnet.owner[78] 	latency:stats
field count 178
field mean 31.704088216344
field stddev 0.57951327426422
field sum 5643.3277025092
field sqrsum 178976.00222149
field min 30.275556519084
field max 33.51661795964
attr interpolationmode  none
attr title  "Latency time of file print, stats"
attr unit  s
statistic UCACnet.owner[79] 	latency:stats
field count 173
field mean 31.693465012877
field stddev 0.59478253747968
field sum 5482.9694472278
field sqrsum 173835.14814029
field min 30.178123905832
field max 33.22367377983
attr interpolationmode  none
attr title  "Latency time of file print, stats"
attr unit  s
statistic UCACnet.owner[80] 	latency:stats
field count 180
field mean 31.691485782665
field stddev 0.60255335245859
field sum 5704.4674408797
field sqrsum 180848.03842743
field min 30.158255601897
field max 33.369369230679
attr interpolationmode  none
attr title  "Latency time of file print, stats"
attr unit  s
statistic UCACnet.owner[81] 	latency:stats
field count 175
field mean 31.677921171123
field stddev 0.60386242453672
field sum 5543.6362049465
field sqrsum 175674.31977171
field min 29.949627977023
field max 33.419061671673
attr interpolationmode  none
attr title  "Latency time of file print, stats"
attr unit  s
statistic UCACnet.owner[82] 	latency:stats
field count 174
field mean 31.754405241538
field stddev 0.60783343479438
field sum 5525.2665120277
field sqrsum 175515.46872724
field min 29.802394048954
field max 33.065332025897
attr interpolationmode  none
attr title  "Latency time of file print, stats"
attr unit  s
statistic UCACnet.owner[83] 	latency:stats
field count 177
field mean 31.6479644931
field stddev 0.61690142392743
field sum 5601.6897152788
field sqrsum 177349.05706707
field min 30.139723097202
field max 33.280581864947
attr interpolationmode  none
attr title  "Latency time of file print, stats"
attr unit  s
statistic UCACnet.owner[84] 	latency:stats
field count 165
field mean 31.690417459931
field stddev 0.62438311050119
field sum 5228.9188808886
field sqrsum 165770.55829954
field min 30.236682460745
field max 33.45692951207
attr interpolationmode  none
attr title  "Latency time of file print, stats"
attr unit  s
statistic UCACnet.owner[85] 	latency:stats
field count 176
field mean 31.635960532584
field stddev 1.0334103703896
field sum 5567.9290537348
field sqrsum 176333.67276607
field min 20.676395248889
field max 33.133820791419
attr interpolationmode  none
attr title  "Latency time of file print, stats"
attr unit  s
statistic UCACnet.owner[86] 	latency:stats
field count 174
field mean 31.621314782051
field stddev 1.2342445427288
field sum 5502.1087720768
field sqrsum 174247.45465621
field min 17.474854601977
field max 33.477689677077
attr interpolationmode  none
attr title  "Latency time of file print, stats"
attr unit  s
statistic UCACnet.owner[87] 	latency:stats
field count 178
field mean 31.644736361804
field stddev 0.64578417656193
field sum 5632.7630724011
field sqrsum 178321.11799952
field min 29.67246384981
field max 33.47638939192
attr interpolationmode  none
attr title  "Latency time of file print, stats"
attr unit  s
statistic UCACnet.owner[88] 	latency:stats
field count 174
field mean 31.699419263193
field stddev 0.57286268376677
field sum 5515.6989517955
field sqrsum 174901.22729874
field min 30.164130698176
field max 33.479121111556
attr interpolationmode  none
attr title  "Latency time of file print, stats"
attr unit  s
statistic UCACnet.owner[89] 	latency:stats
field count 176
field mean 31.697697301506
field stddev 0.63144368619093
field sum 5578.794725065
field sqrsum 176904.72269989
field min 29.709027454347
field max 33.413666191765
attr interpolationmode  none
attr title  "Latency time of file print, stats"
attr unit  s
statistic UCACnet.owner[90] 	latency:stats
field count 177
field mean 31.700701597742
field stddev 0.60448704361721
field sum 5611.0241828003
field sqrsum 177937.71448378
field min 29.86694709287
field max 33.464033049768
attr interpolationmode  none
attr title  "Latency time of file print, stats"
attr unit  s
statistic UCACnet.owner[91] 	latency:stats
field count 173
field mean 31.65610556728
field stddev 0.78111691468439
field sum 5476.5062631394
field sqrsum 173469.80511092
field min 25.111746846462
field max 33.118001821092
attr interpolationmode  none
attr title  "Latency time of file print, stats"
attr unit  s
statistic UCACnet.owner[92] 	latency:stats
field count 178
field mean 31.683523716902
field stddev 0.72127519521772
field sum 5639.6672216086
field sqrsum 178776.61228085
field min 26.709940445813
field max 33.349539353212
attr interpolationmode  none
attr title  "Latency time of file print, stats"
attr unit  s
statistic UCACnet.owner[93] 	latency:stats
field count 170
field mean 31.688060142013
field stddev 0.61097170900701
field sum 5386.9702241422
field sqrsum 170765.72185238
field min 29.687959548987
field max 33.139808714846
attr interpolationmode  none
attr title  "Latency time of file print, stats"
attr unit  s
statistic UCACnet.owner[94] 	latency:stats
field count 173
field mean 31.615680620369
field stddev 0.88883986875136
field sum 5469.5127473239
field sqrsum 173058.25441414
field min 22.683720622356
field max 33.01921400607
attr interpolationmode  none
attr title  "Latency time of file print, stats"
attr unit  s
statistic UCACnet.owner[95] 	latency:stats
field count 177
field mean 31.680851392289
field stddev 0.61403694853514
field sum 5607.5106964351
field sqrsum 177717.07233628
field min 29.978783937901
field max 33.466346585344
attr interpolationmode  none
attr title  "Latency time of file print, stats"
attr unit  s
statistic UCACnet.owner[96] 	latency:stats
field count 177
field mean 31.702912849734
field stddev 0.56591323096271
field sum 5611.4155744029
field sqrsum 177954.58428909
field min 29.676387863814
field max 32.857800208084
attr interpolationmode  none
attr title  "Latency time of file print, stats"
attr unit  s
statistic UCACnet.owner[97] 	latency:stats
field count 172
field mean 31.720362250253
field stddev 0.58091549825151
field sum 5455.9023070435
field sqrsum 173120.90372296
field min 30.042022586716
field max 33.449391908926
attr interpolationmode  none
attr title  "Latency time of file print, stats"
attr unit  s
statistic UCACnet.owner[98] 	latency:stats
field count 176
field mean 31.696143630484
field stddev 0.58500615194599
field sum 5578.5212789651
field sqrsum 176877.5023384
field min 30.244234491497
field max 33.391286565744
attr interpolationmode  none
attr title  "Latency time of file print, stats"
attr unit  s
statistic UCACnet.owner[99] 	latency:stats
field count 171
field mean 31.706855521953
field stddev 0.60975379922444
field sum 5421.872294254
field sqrsum 171973.72744066
field min 29.357452539246
field max 33.383867362337
attr interpolationmode  none
attr title  "Latency time of file print, stats"
attr unit  s
statistic UCACnet.owner[100] 	latency:stats
field count 170
field mean 31.734245152648
field stddev 0.62771524640007
field sum 5394.8216759501
field sqrsum 171267.18408618
field min 29.922963030052
field max 33.311729571364
attr interpolationmode  none
attr title  "Latency time of file print, stats"
attr unit  s
statistic UCACnet.owner[101] 	latency:stats
field count 172
field mean 31.559486159653
field stddev 1.3905149052759
field sum 5428.2316194604
field sqrsum 171642.83458676
field min 15.07217594251
field max 33.225340793593
attr interpolationmode  none
attr title  "Latency time of file print, stats"
attr unit  s
statistic UCACnet.owner[102] 	latency:stats
field count 174
field mean 31.731801121971
field stddev 0.5671658058817
field sum 5521.333395223
field sqrsum 175257.5033552
field min 30.253207374713
field max 33.355650186208
attr interpolationmode  none
attr title  "Latency time of file print, stats"
attr unit  s
statistic UCACnet.owner[103] 	latency:stats
field count 176
field mean 31.697848726286
field stddev 0.62164433051696
field sum 5578.8213758264
field sqrsum 176904.26333481
field min 29.614881101957
field max 33.459297454975
attr interpolationmode  none
attr title  "Latency time of file print, stats"
attr unit  s
statistic UCACnet.owner[104] 	latency:stats
field count 171
field mean 31.639757465367
field stddev 0.59494773130681
field sum 5410.3985265777
field sqrsum 171243.87084841
field min 29.545207901348
field max 33.293755232491
attr interpolationmode  none
attr title  "Latency time of file print, stats"
attr unit  s
statistic UCACnet.owner[105] 	latency:stats
field count 174
field mean 31.741971628579
field stddev 0.60540239515431
field sum 5523.1030633728
field sqrsum 175377.58732569
field min 30.254541086104
field max 33.429933648251
attr interpolationmode  none
attr title  "Latency time of file print, stats"
attr unit  s
statistic UCACnet.owner[106] 	latency:stats
field count 177
field mean 31.610794503207
field stddev 0.99859953776928
field sum 5595.1106270676
field sqrsum 177041.39963742
field min 20.98765642508
field max 33.169451367655
attr interpolationmode  none
attr title  "Latency time of file print, stats"
attr unit  s
statistic UCACnet.owner[107] 	latency:stats
field count 174
field mean 31.701159900302
field stddev 0.59022703396828
field sum 5516.0018226526
field sqrsum 174923.9234459
field min 30.078367920942
field max 33.407743373118
attr interpolationmode  none
attr title  "Latency time of file print, stats"
attr unit  s
statistic UCACnet.owner[108] 	latency:stats
field count 176
field mean 31.681266798945
field stddev 0.67290694252421
field sum 5575.9029566143
field sqrsum 176730.90987035
field min 26.656992318885
field max 33.108492876602
attr interpolationmode  none
attr title  "Latency time of file print, stats"
attr unit  s
statistic UCACnet.owner[109] 	latency:stats
field count 172
field mean 31.713536402854
field stddev 0.60387276596005
field sum 5454.7282612909
field sqrsum 173051.08053841
field min 30.105337377732
field max 33.457815052439
attr interpolationmode  none
attr title  "Latency time of file print, stats"
attr unit  s
statistic UCACnet.owner[110] 	latency:stats
field count 173
field mean 31.664395256815
field stddev 0.79870002019731
field sum 5477.940379429
field sqrsum 173565.39190374
field min 24.714872052384
field max 33.090449530245
attr interpolationmode  none
attr title  "Latency time of file print, stats"
attr unit  s
statistic UCACnet.owner[111] 	latency:stats
field count 176
field mean 31.72136367212
field stddev 0.60872904864968
field sum 5582.9600062931
field sqrsum 177163.95116109
field min 30.179828419277
field max 33.48895863357
attr interpolationmode  none
attr title  "Latency time of file print, stats"
attr unit  s
statistic UCACnet.owner[112] 	latency:stats
field count 173
field mean 31.657371286539
field stddev 0.63963127683412
field sum 5476.7252325712
field sqrsum 173449.09416716
field min 29.583294046498
field max 33.455270669427
attr interpolationmode  none
attr title  "Latency time of file print, stats"
attr unit  s
statistic UCACnet.owner[113] 	latency:stats
field count 177
field mean 31.730814801118
field stddev 0.62895560024422
field sum 5616.3542197978
field sqrsum 178281.11859177
field min 29.846269644491
field max 33.330848970383
attr interpolationmode  none
attr title  "Latency time of file print, stats"
attr unit  s
statistic UCACnet.owner[114] 	latency:stats
field count 175
field mean 31.598959082481
field stddev 0.6413431863344
field sum 5529.8178394342
field sqrsum 174808.05751024
field min 28.097202173968
field max 33.152242089086
attr interpolationmode  none
attr title  "Latency time of file print, stats"
attr unit  s
statistic UCACnet.owner[115] 	latency:stats
field count 175
field mean 31.701089665733
field stddev 0.56700242340789
field sum 5547.6906915033
field sqrsum 175923.77961328
field min 30.179658372552
field max 32.989275746974
attr interpolationmode  none
attr title  "Latency time of file print, stats"
attr unit  s
statistic UCACnet.owner[116] 	latency:stats
field count 173
field mean 31.681320132097
field stddev 0.59028912901723
field sum 5480.8683828527
field sqrsum 173701.07773505
field min 30.157469711732
field max 33.427688284046
attr interpolationmode  none
attr title  "Latency time of file print, stats"
attr unit  s
statistic UCACnet.owner[117] 	latency:stats
field count 177
field mean 31.705550382729
field stddev 0.59495482719774
field sum 5611.8824177431
field sqrsum 177990.11967707
field min 30.110848025062
field max 33.228418078142
attr interpolationmode  none
attr title  "Latency time of file print, stats"
attr unit  s
statistic UCACnet.owner[118] 	latency:stats
field count 171
field mean 31.669714246579
field stddev 0.6510122920446
field sum 5415.521136165
field sqrsum 171580.0557694
field min 27.901237421851
field max 33.033419900539
attr interpolationmode  none
attr title  "Latency time of file print, stats"
attr unit  s
statistic UCACnet.owner[119] 	latency:stats
field count 179
field mean 31.66804071404
field stddev 0.60759831523838
field sum 5668.5792878131
field sqrsum 179578.51295408
field min 29.94137573067
field max 33.471366765934
attr interpolationmode  none
attr title  "Latency time of file print, stats"
attr unit  s
statistic UCACnet.owner[120] 	latency:stats
field count 174
field mean 31.638649602612
field stddev 0.81368672811098
field sum 5505.1250308545
field sqrsum 174289.26276361
field min 24.560732945179
field max 33.206993329807
attr interpolationmode  none
attr title  "Latency time of file print, stats"
attr unit  s
statistic UCACnet.owner[121] 	latency:stats
field count 172
field mean 31.704461805816
field stddev 0.54879803174045
field sum 5453.1674306003
field sqrsum 172941.240181
field min 30.007666644779
field max 32.962148452588
attr interpolationmode  none
attr title  "Latency time of file print, stats"
attr unit  s
statistic UCACnet.owner[122] 	latency:stats
field count 177
field mean 31.661263953646
field stddev 0.97409346345547
field sum 5604.0437197953
field sqrsum 177598.10644151
field min 21.622453408716
field max 33.520888352356
attr interpolationmode  none
attr title  "Latency time of file print, stats"
attr unit  s
statistic UCACnet.owner[123] 	latency:stats
field count 168
field mean 31.73271430011
field stddev 0.62167156647356
field sum 5331.0960024185
field sqrsum 169234.68776581
field min 29.636093677439
field max 33.475316816883
attr interpolationmode  none
attr title  "Latency time of file print, stats"
attr unit  s
statistic UCACnet.owner[124] 	latency:stats
field count 173
field mean 31.672238070267
field stddev 0.65311970367735
field sum 5479.2971861562
field sqrsum 173614.97417743
field min 30.158775428894
field max 33.471113462776
attr interpolationmode  none
attr title  "Latency time of file print, stats"
attr unit  s
statistic UCACnet.owner[125] 	latency:stats
field count 174
field mean 31.678867460999
field stddev 0.60321170539611
field sum 5512.1229382138
field sqrsum 174680.76052295
field min 29.688449072898
field max 33.406321956201
attr interpolationmode  none
attr title  "Latency time of file print, stats"
attr unit  s
statistic UCACnet.owner[126] 	latency:stats
field count 172
field mean 31.613636826728
field stddev 0.8818356561102
field sum 5437.5455341972
field sqrsum 172033.56518218
field min 23.376884814119
field max 33.259010475342
attr interpolationmode  none
attr title  "Latency time of file print, stats"
attr unit  s
statistic UCACnet.owner[127] 	latency:stats
field count 175
field mean 31.713528575857
field stddev 0.59149078388434
field sum 5549.867500775
field sqrsum 176066.7574525
field min 30.241440865634
field max 33.023398816333
attr interpolationmode  none
attr title  "Latency time of file print, stats"
attr unit  s
statistic UCACnet.owner[128] 	latency:stats
field count 174
field mean 31.653654502447
field stddev 0.72194184182521
field sum 5507.7358834257
field sqrsum 174430.13634866
field min 26.149201541568
field max 32.995772466853
attr interpolationmode  none
attr title  "Latency time of file print, stats"
attr unit  s
statistic UCACnet.owner[129] 	latency:stats
field count 176
field mean 31.670517851351
field stddev 0.58690690127461
field sum 5574.0111418377
field sqrsum 176592.09982058
field min 29.540955995224
field max 33.007740999739
attr interpolationmode  none
attr title  "Latency time of file print, stats"
attr unit  s
statistic UCACnet.owner[130] 	latency:stats
field count 178
field mean 31.67732360551
field stddev 0.59811210817998
field sum 5638.5636017808
field sqrsum 178677.92352649
field min 30.281165560641
field max 33.230293098969
attr interpolationmode  none
attr title  "Latency time of file print, stats"
attr unit  s
statistic UCACnet.owner[131] 	latency:stats
field count 173
field mean 31.715166985106
field stddev 0.55726274250918
field sum 5486.7238884234
field sqrsum 174065.77750596
field min 30.475335329053
field max 33.503313697858
attr interpolationmode  none
attr title  "Latency time of file print, stats"
attr unit  s
statistic UCACnet.owner[132] 	latency:stats
field count 167
field mean 31.731581382097
field stddev 0.60130079459628
field sum 5299.1740908102
field sqrsum 168211.19331961
field min 30.084127488776
field max 33.438427258089
attr interpolationmode  none
attr title  "Latency time of file print, stats"
attr unit  s
statistic UCACnet.owner[133] 	latency:stats
field count 175
field mean 31.595485136431
field stddev 1.6319150604241
field sum 5529.2098988755
field sqrsum 175161.45671314
field min 11.623361722332
field max 33.001319293421
attr interpolationmode  none
attr title  "Latency time of file print, stats"
attr unit  s
statistic UCACnet.owner[134] 	latency:stats
field count 173
field mean 31.622151068438
field stddev 1.0398719977421
field sum 5470.6321348398
field sqrsum 173179.14521649
field min 20.460558691391
field max 32.915689007704
attr interpolationmode  none
attr title  "Latency time of file print, stats"
attr unit  s
statistic UCACnet.owner[135] 	latency:stats
field count 178
field mean 31.717714290219
field stddev 0.57475287327179
field sum 5645.753143659
field sqrsum 179128.85549684
field min 30.228356470048
field max 33.450988165077
attr interpolationmode  none
attr title  "Latency time of file print, stats"
attr unit  s
statistic UCACnet.owner[136] 	latency:stats
field count 179
field mean 31.712581186221
field stddev 0.6139406969503
field sum 5676.5520323335
field sqrsum 180085.20950911
field min 30.107498000927
field max 33.46767652812
attr interpolationmode  none
attr title  "Latency time of file print, stats"
attr unit  s
statistic UCACnet.owner[137] 	latency:stats
field count 171
field mean 31.729863655794
field stddev 0.62896175543609
field sum 5425.8066851407
field sqrsum 172227.35713347
field min 29.677999435034
field max 33.395863849101
attr interpolationmode  none
attr title  "Latency time of file print, stats"
attr unit  s
statistic UCACnet.owner[138] 	latency:stats
field count 174
field mean 31.670669051067
field stddev 1.0296387935195
field sum 5510.6964148857
field sqrsum 174710.84939255
field min 20.357659753551
field max 33.156048709992
attr interpolationmode  none
attr title  "Latency time of file print, stats"
attr unit  s
statistic UCACnet.owner[139] 	latency:stats
field count 179
field mean 31.624833332199
field stddev 0.59010050317073
field sum 5660.8451664636
field sqrsum 179085.26782028
field min 30.262031198019
field max 33.116687896455
attr interpolationmode  none
attr title  "Latency time of file print, stats"
attr unit  s
statistic UCACnet.owner[140] 	latency:stats
field count 172
field mean 31.703136177632
field stddev 0.61116920744131
field sum 5452.9394225526
field sqrsum 172939.15433538
field min 29.7957532576
field max 33.335930130893
attr interpolationmode  none
attr title  "Latency time of file print, stats"
attr unit  s
statistic UCACnet.owner[141] 	latency:stats
field count 170
field mean 31.662857235181
field stddev 0.57639193893096
field sum 5382.6857299807
field sqrsum 170487.35628599
field min 30.262374686222
field max 33.347511826385
attr interpolationmode  none
attr title  "Latency time of file print, stats"
attr unit  s
statistic UCACnet.owner[142] 	latency:stats
field count 170
field mean 31.674557936095
field stddev 0.59243013196613
field sum 5384.6748491361
field sqrsum 170616.50999095
field min 30.120769899595
field max 33.238378154363
attr interpolationmode  none
attr title  "Latency time of file print, stats"
attr unit  s
statistic UCACnet.owner[143] 	latency:stats
field count 176
field mean 31.675480716384
field stddev 0.59959498538186
field sum 5574.8846060836
field sqrsum 176650.06481171
field min 29.874229640369
field max 33.0571824772
attr interpolationmode  none
attr title  "Latency time of file print, stats"
attr unit  s
statistic UCACnet.owner[144] 	latency:stats
field count 174
field mean 31.664292599731
field stddev 0.56520107231077
field sum 5509.5869123532
field sqrsum 174512.43733602
field min 29.870343482548
field max 33.119873926712
attr interpolationmode  none
attr title  "Latency time of file print, stats"
attr unit  s
statistic UCACnet.owner[145] 	latency:stats
field count 171
field mean 31.668799842599
field stddev 1.26705831035
field sum 5415.3647730845
field sqrsum 171771.02732298
field min 16.952738242403
field max 33.457572361525
attr interpolationmode  none
attr title  "Latency time of file print, stats"
attr unit  s
statistic UCACnet.owner[146] 	latency:stats
field count 172
field mean 31.737304657
field stddev 0.63698002590216
field sum 5458.816401004
field sqrsum 173317.50133292
field min 29.716517788037
field max 33.425222537627
attr interpolationmode  none
attr title  "Latency time of file print, stats"
attr unit  s
statistic UCACnet.owner[147] 	latency:stats
field count 179
field mean 31.702711186586
field stddev 0.61794667046902
field sum 5674.7853023988
field sqrsum 179974.05022741
field min 29.772037517592
field max 33.27304130059
attr interpolationmode  none
attr title  "Latency time of file print, stats"
attr unit  s
statistic UCACnet.owner[148] 	latency:stats
field count 177
field mean 31.6905930139
field stddev 0.64368333249633
field sum 5609.2349634603
field sqrsum 177832.90411528
field min 29.50241656611
field max 33.303554785117
attr interpolationmode  none
attr title  "Latency time of file print, stats"
attr unit  s
statistic UCACnet.owner[149] 	latency:stats
field count 178
field mean 31.600997622775
field stddev 1.5377931465762
field sum 5624.977576854
field sqrsum 178173.47400814
field min 12.770106225179
field max 33.317294161598
attr interpolationmode  none
attr title  "Latency time of file print, stats"
attr unit  s
statistic UCACnet.owner[150] 	latency:stats
field count 175
field mean 31.588249907384
field stddev 1.3799199528024
field sum 5527.9437337923
field sqrsum 174949.39529624
field min 15.120244516058
field max 33.324940095439
attr interpolationmode  none
attr title  "Latency time of file print, stats"
attr unit  s
statistic UCACnet.owner[151] 	latency:stats
field count 172
field mean 31.708644940945
field stddev 0.58434697853705
field sum 5453.8869298425
field sqrsum 172993.75410435
field min 30.307233960006
field max 32.957145938262
attr interpolationmode  none
attr title  "Latency time of file print, stats"
attr unit  s
statistic UCACnet.owner[152] 	latency:stats
field count 172
field mean 31.677893242582
field stddev 0.63358207429061
field sum 5448.5976377241
field sqrsum 172668.73817748
field min 28.941905097003
field max 33.40623632379
attr interpolationmode  none
attr title  "Latency time of file print, stats"
attr unit  s
statistic UCACnet.owner[153] 	latency:stats
field count 168
field mean 31.637663584137
field stddev 0.56724569687345
field sum 5315.127482135
field sqrsum 168211.95038925
field min 29.77544294358
field max 32.983728960858
attr interpolationmode  none
attr title  "Latency time of file print, stats"
attr unit  s
statistic UCACnet.owner[154] 	latency:stats
field count 176
field mean 31.629991876783
field stddev 0.92445362152679
field sum 5566.8785703139
field sqrsum 176229.88149528
field min 22.209439853528
field max 32.916056224428
attr interpolationmode  none
attr title  "Latency time of file print, stats"
attr unit  s
statistic UCACnet.owner[155] 	latency:stats
field count 169
field mean 31.685128275195
field stddev 0.6191591200889
field sum 5354.786678508
field sqrsum 169731.50694152
field min 29.638614194366
field max 33.166163573615
attr interpolationmode  none
attr title  "Latency time of file print, stats"
attr unit  s
statistic UCACnet.owner[156] 	latency:stats
field count 173
field mean 31.674006554585
field stddev 0.65553328867903
field sum 5479.6031339432
field sqrsum 173634.89809056
field min 29.250246612827
field max 33.400658571496
attr interpolationmode  none
attr title  "Latency time of file print, stats"
attr unit  s
statistic UCACnet.owner[157] 	latency:stats
field count 174
field mean 31.734980221186
field stddev 0.59436658672982
field sum 5521.8865584864
field sqrsum 175298.07671082
field min 30.258294841867
field max 33.483848994823
attr interpolationmode  none
attr title  "Latency time of file print, stats"
attr unit  s
statistic UCACnet.owner[158] 	latency:stats
field count 176
field mean 31.642179991336
field stddev 0.9442752114264
field sum 5569.0236784752
field sqrsum 176372.08935343
field min 22.100121142387
field max 33.304805865162
attr interpolationmode  none
attr title  "Latency time of file print, stats"
attr unit  s
statistic UCACnet.owner[159] 	latency:stats
field count 170
field mean 31.725905008086
field stddev 0.62899698779117
field sum 5393.4038513746
field sqrsum 171177.48094755
field min 29.728507084712
field max 33.497272241154
attr interpolationmode  none
attr title  "Latency time of file print, stats"
attr unit  s
statistic UCACnet.owner[160] 	latency:stats
field count 172
field mean 31.667333248409
field stddev 0.63209264468554
field sum 5446.7813187264
field sqrsum 172553.36068138
field min 29.756998018023
field max 33.337240452849
attr interpolationmode  none
attr title  "Latency time of file print, stats"
attr unit  s
statistic UCACnet.owner[161] 	latency:stats
field count 170
field mean 31.673447838523
field stddev 0.62513153310974
field sum 5384.4861325489
field sqrsum 170611.28407083
field min 29.845299975678
field max 33.331271754603
attr interpolationmode  none
attr title  "Latency time of file print, stats"
attr unit  s
statistic UCACnet.owner[162] 	latency:stats
field count 168
field mean 31.693642926898
field stddev 0.61229085120501
field sum 5324.5320117189
field sqrsum 168816.4246467
field min 29.682240160745
field max 33.463662119205
attr interpolationmode  none
attr title  "Latency time of file print, stats"
attr unit  s
statistic UCACnet.owner[163] 	latency:stats
field count 171
field mean 31.714539004006
field stddev 0.59568240917771
field sum 5423.1861696851
field sqrsum 172054.17168501
field min 29.865621175873
field max 33.314073981335
attr interpolationmode  none
attr title  "Latency time of file print, stats"
attr unit  s
statistic UCACnet.owner[164] 	latency:stats
field count 175
field mean 31.629561504012
field stddev 1.2049586935427
field sum 5535.1732632021
field sqrsum 175327.73819266
field min 17.877033491819
field max 33.019146129326
attr interpolationmode  none
attr title  "Latency time of file print, stats"
attr unit  s
statistic UCACnet.owner[165] 	latency:stats
field count 175
field mean 31.643248667754
field stddev 0.68911554609439
field sum 5537.5685168569
field sqrsum 175309.28675467
field min 26.956053025823
field max 33.171788473934
attr interpolationmode  none
attr title  "Latency time of file print, stats"
attr unit  s
statistic UCACnet.owner[166] 	latency:stats
field count 175
field mean 31.68755516233
field stddev 0.61770651765021
field sum 5545.3221534077
field sqrsum 175784.0933025
field min 30.257727918354
field max 33.454112235989
attr interpolationmode  none
attr title  "Latency time of file print, stats"
attr unit  s
statistic UCACnet.owner[167] 	latency:stats
field count 181
field mean 31.765818899302
field stddev 0.62850975575131
field sum 5749.6132207737
field sqrsum 182712.27672448
field min 29.931549528701
field max 33.473506602984
attr interpolationmode  none
attr title  "Latency time of file print, stats"
attr unit  s
statistic UCACnet.owner[168] 	latency:stats
field count 180
field mean 31.70065013309
field stddev 0.6216728635246
field sum 5706.1170239561
field sqrsum 180956.79880461
field min 30.014008686944
field max 33.167032186938
attr interpolationmode  none
attr title  "Latency time of file print, stats"
attr unit  s
statistic UCACnet.owner[169] 	latency:stats
field count 175
field mean 31.65464281279
field stddev 0.61935620869487
field sum 5539.5624922382
field sqrsum 175419.61879863
field min 29.714154765569
field max 33.022902895048
attr interpolationmode  none
attr title  "Latency time of file print, stats"
attr unit  s
statistic UCACnet.owner[170] 	latency:stats
field count 178
field mean 31.66629709066
field stddev 0.65287607437968
field sum 5636.6008821376
field sqrsum 178565.72386407
field min 28.483859105662
field max 33.03411909817
attr interpolationmode  none
attr title  "Latency time of file print, stats"
attr unit  s
statistic UCACnet.owner[171] 	latency:stats
field count 170
field mean 31.724408417063
field stddev 0.61442727458661
field sum 5393.1494309007
field sqrsum 171158.27622815
field min 29.592732977013
field max 32.984372212234
attr interpolationmode  none
attr title  "Latency time of file print, stats"
attr unit  s
statistic UCACnet.owner[172] 	latency:stats
field count 174
field mean 31.679615115758
field stddev 0.57377722976779
field sum 5512.253030142
field sqrsum 174683.0095291
field min 30.173313422273
field max 33.189731245435
attr interpolationmode  none
attr title  "Latency time of file print, stats"
attr unit  s
statistic UCACnet.owner[173] 	latency:stats
field count 173
field mean 31.664723267751
field stddev 0.61940752948872
field sum 5477.997125321
field sqrsum 173525.25353309
field min 29.744582808749
field max 33.026711531896
attr interpolationmode  none
attr title  "Latency time of file print, stats"
attr unit  s
statistic UCACnet.owner[174] 	latency:stats
field count 173
field mean 31.595260874264
field stddev 1.0542668319963
field sum 5465.9801312477
field sqrsum 172890.24249144
field min 20.275504422458
field max 33.503863877087
attr interpolationmode  none
attr title  "Latency time of file print, stats"
attr unit  s
statistic UCACnet.owner[175] 	latency:stats
field count 177
field mean 31.724376205346
field stddev 0.6060619603635
field sum 5615.2145883463
field sqrsum 178203.82682801
field min 30.187404786165
field max 33.387841140458
attr interpolationmode  none
attr title  "Latency time of file print, stats"
attr unit  s
statistic UCACnet.owner[176] 	latency:stats
field count 179
field mean 31.717779319407
field stddev 0.58988330214324
field sum 5677.4824981738
field sqrsum 180139.07425808
field min 29.522356070419
field max 33.295051095898
attr interpolationmode  none
attr title  "Latency time of file print, stats"
attr unit  s
statistic UCACnet.owner[177] 	latency:stats
field count 174
field mean 31.646076312741
field stddev 1.1267712182851
field sum 5506.417278417
field sqrsum 174476.14451704
field min 19.276302683245
field max 33.213771831275
attr interpolationmode  none
attr title  "Latency time of file print, stats"
attr unit  s
statistic UCACnet.owner[178] 	latency:stats
field count 168
field mean 31.722436490775
field stddev 0.57310015567343
field sum 5329.3693304502
field sqrsum 169115.43023376
field min 30.267538602283
field max 33.100728007644
attr interpolationmode  none
attr title  "Latency time of file print, stats"
attr unit  s
statistic UCACnet.owner[179] 	latency:stats
field count 172
field mean 31.675821419951
field stddev 0.63580079901617
field sum 5448.2412842316
field sqrsum 172646.64346631
field min 28.75060335135
field max 33.151957209282
attr interpolationmode  none
attr title  "Latency time of file print, stats"
attr unit  s
statistic UCACnet.owner[180] 	latency:stats
field count 171
field mean 31.715570884601
field stddev 0.60173116840442
field sum 5423.3626212667
field sqrsum 172066.59531551
field min 29.764405365655
field max 33.093425453493
attr interpolationmode  none
attr title  "Latency time of file print, stats"
attr unit  s
statistic UCACnet.owner[181] 	latency:stats
field count 173
field mean 31.554577314533
field stddev 1.684176528431
field sum 5458.9418754142
field sqrsum 172742.47296287
field min 10.988
field max 33.062278454246
attr interpolationmode  none
attr title  "Latency time of file print, stats"
attr unit  s
statistic UCACnet.owner[182] 	latency:stats
field count 172
field mean 31.646123328419
field stddev 0.61972005970621
field sum 5443.133212488
field sqrsum 172319.73799027
field min 29.60098050574
field max 33.475548405732
attr interpolationmode  none
attr title  "Latency time of file print, stats"
attr unit  s
statistic UCACnet.owner[183] 	latency:stats
field count 169
field mean 31.696005521254
field stddev 0.57630689086521
field sum 5356.624933092
field sqrsum 169839.41123283
field min 30.203085614042
field max 33.000298039729
attr interpolationmode  none
attr title  "Latency time of file print, stats"
attr unit  s
statistic UCACnet.owner[184] 	latency:stats
field count 174
field mean 31.626212874535
field stddev 0.91019791804234
field sum 5502.9610401692
field sqrsum 174181.14091992
field min 22.910700371033
field max 33.057079473918
attr interpolationmode  none
attr title  "Latency time of file print, stats"
attr unit  s
statistic UCACnet.owner[185] 	latency:stats
field count 170
field mean 31.715844350075
field stddev 0.62515108989719
field sum 5391.6935395128
field sqrsum 171068.16062909
field min 29.791538014088
field max 33.506936859365
attr interpolationmode  none
attr title  "Latency time of file print, stats"
attr unit  s
statistic UCACnet.owner[186] 	latency:stats
field count 172
field mean 31.680823639564
field stddev 0.59238559142607
field sum 5449.101666005
field sqrsum 172692.03631257
field min 30.294310214708
field max 33.418669405551
attr interpolationmode  none
attr title  "Latency time of file print, stats"
attr unit  s
statistic UCACnet.owner[187] 	latency:stats
field count 178
field mean 31.650671656511
field stddev 0.57007961901465
field sum 5633.819554859
field sqrsum 178371.69626952
field min 30.156803452571
field max 32.940377098118
attr interpolationmode  none
attr title  "Latency time of file print, stats"
attr unit  s
statistic UCACnet.owner[188] 	latency:stats
field count 173
field mean 31.609966900009
field stddev 0.6434716632816
field sum 5468.5242737015
field sqrsum 172931.08887801
field min 29.139465836379
field max 33.267924381283
attr interpolationmode  none
attr title  "Latency time of file print, stats"
attr unit  s
statistic UCACnet.owner[189] 	latency:stats
field count 177
field mean 31.657110436438
field stddev 0.62656395509455
field sum 5603.3085472495
field sqrsum 177453.65199032
field min 28.448830269017
field max 33.00549085293
attr interpolationmode  none
attr title  "Latency time of file print, stats"
attr unit  s
statistic UCACnet.owner[190] 	latency:stats
field count 174
field mean 31.686656453579
field stddev 0.74866940286432
field sum 5513.4782229227
field sqrsum 174800.65783038
field min 25.530503120968
field max 32.893723488242
attr interpolationmode  none
attr title  "Latency time of file print, stats"
attr unit  s
statistic UCACnet.owner[191] 	latency:stats
field count 174
field mean 31.688386214514
field stddev 0.61933053243422
field sum 5513.7792013254
field sqrsum 174789.12249651
field min 29.774576404783
field max 33.270143529293
attr interpolationmode  none
attr title  "Latency time of file print, stats"
attr unit  s
statistic UCACnet.owner[192] 	latency:stats
field count 175
field mean 31.701157426715
field stddev 0.60660140362059
field sum 5547.7025496751
field sqrsum 175932.61783958
field min 30.129256883041
field max 33.364717087048
attr interpolationmode  none
attr title  "Latency time of file print, stats"
attr unit  s
statistic UCACnet.owner[193] 	latency:stats
field count 172
field mean 31.705925949529
field stddev 0.56061992709103
field sum 5453.419263319
field sqrsum 172959.45172868
field min 30.174638677587
field max 33.462626427184
attr interpolationmode  none
attr title  "Latency time of file print, stats"
attr unit  s
statistic UCACnet.owner[194] 	latency:stats
field count 177
field mean 31.574880566556
field stddev 1.5593806575531
field sum 5588.7538602804
field sqrsum 176892.20922842
field min 12.796882918684
field max 33.22830499508
attr interpolationmode  none
attr title  "Latency time of file print, stats"
attr unit  s
statistic UCACnet.owner[195] 	latency:stats
field count 178
field mean 31.678230174628
field stddev 0.80565101352232
field sum 5638.7249710838
field sqrsum 178739.71354475
field min 24.875484986793
field max 33.314329331959
attr interpolationmode  none
attr title  "Latency time of file print, stats"
attr unit  s
statistic UCACnet.owner[196] 	latency:stats
field count 177
field mean 31.730277440094
field stddev 0.56809670532853
field sum 5616.2591068967
field sqrsum 178262.26079781
field min 29.648205999507
field max 33.233156182681
attr interpolationmode  none
attr title  "Latency time of file print, stats"
attr unit  s
statistic UCACnet.owner[197] 	latency:stats
field count 177
field mean 31.712709792743
field stddev 0.61851962226863
field sum 5613.1496333155
field sqrsum 178075.51705265
field min 29.449783097165
field max 33.215103456475
attr interpolationmode  none
attr title  "Latency time of file print, stats"
attr unit  s
statistic UCACnet.owner[198] 	latency:stats
field count 175
field mean 31.585437678412
field stddev 1.7076916564118
field sum 5527.4515937221
field sqrsum 175094.39851199
field min 10.610942101717
field max 33.495825397774
attr interpolationmode  none
attr title  "Latency time of file print, stats"
attr unit  s
statistic UCACnet.owner[199] 	latency:stats
field count 176
field mean 31.679815183918
field stddev 0.8265635606781
field sum 5575.6474723695
field sqrsum 176755.04273632
field min 23.788592444335
field max 33.479408785051
attr interpolationmode  none
attr title  "Latency time of file print, stats"
attr unit  s
statistic UCACnet.owner[200] 	latency:stats
field count 173
field mean 31.718296086246
field stddev 0.60617215359906
field sum 5487.2652229206
field sqrsum 174109.90352928
field min 30.134980029325
field max 33.475666086916
attr interpolationmode  none
attr title  "Latency time of file print, stats"
attr unit  s
statistic UCACnet.owner[201] 	latency:stats
field count 171
field mean 31.684969610755
field stddev 0.58379689060913
field sum 5418.129803439
field sqrsum 171731.2173667
field min 29.835976798898
field max 33.283177185156
attr interpolationmode  none
attr title  "Latency time of file print, stats"
attr unit  s
statistic UCACnet.owner[202] 	latency:stats
field count 175
field mean 31.669011734058
field stddev 0.70367809026545
field sum 5542.0770534601
field sqrsum 175598.2615738
field min 28.564790898094
field max 33.229521461726
attr interpolationmode  none
attr title  "Latency time of file print, stats"
attr unit  s
statistic UCACnet.owner[203] 	latency:stats
field count 173
field mean 31.717523112987
field stddev 0.65752172393744
field sum 5487.1314985467
field sqrsum 174112.58171775
field min 29.785682581298
field max 33.456920972275
attr interpolationmode  none
attr title  "Latency time of file print, stats"
attr unit  s
statistic UCACnet.owner[204] 	latency:stats
field count 177
field mean 31.728940137969
field stddev 0.57735055556925
field sum 5616.0224044206
field sqrsum 178249.10540822
field min 29.858230263748
field max 33.316428769138
attr interpolationmode  none
attr title  "Latency time of file print, stats"
attr unit  s
statistic UCACnet.owner[205] 	latency:stats
field count 175
field mean 31.688474549031
field stddev 0.63675628461963
field sum 5545.4830460804
field sqrsum 175798.44815828
field min 29.122540124288
field max 33.366538676082
attr interpolationmode  none
attr title  "Latency time of file print, stats"
attr unit  s
statistic UCACnet.owner[206] 	latency:stats
field count 174
field mean 31.725552797471
field stddev 0.57904630350496
field sum 5520.24618676
field sqrsum 175190.86782263
field min 30.033254378416
field max 33.01319013776
attr interpolationmode  none
attr title  "Latency time of file print, stats"
attr unit  s
statistic UCACnet.owner[207] 	latency:stats
field count 175
field mean 31.734238431828
field stddev 0.58614555838705
field sum 5553.4917255699
field sqrsum 176295.61113953
field min 29.941407444513
field max 33.236375301015
attr interpolationmode  none
attr title  "Latency time of file print, stats"
attr unit  s
statistic UCACnet.owner[208] 	latency:stats
field count 172
field mean 31.634050110481
field stddev 0.70339173653919
field sum 5441.0566190027
field sqrsum 172207.26168839
field min 27.97379778156
field max 32.861519660004
attr interpolationmode  none
attr title  "Latency time of file print, stats"
attr unit  s
statistic UCACnet.owner[209] 	latency:stats
field count 174
field mean 31.723518831688
field stddev 0.58690808801173
field sum 5519.8922767137
field sqrsum 175169.99836017
field min 30.306588839121
field max 33.211438031627
attr interpolationmode  none
attr title  "Latency time of file print, stats"
attr unit  s
statistic UCACnet.owner[210] 	latency:stats
field count 172
field mean 31.707884536324
field stddev 0.55756585793113
field sum 5453.7561402478
field sqrsum 172980.23041054
field min 30.410722270964
field max 33.310077828351
attr interpolationmode  none
attr title  "Latency time of file print, stats"
attr unit  s
statistic UCACnet.owner[211] 	latency:stats
field count 175
field mean 31.735756170507
field stddev 0.5949792463161
field sum 5553.7573298388
field sqrsum 176314.28450275
field min 29.990680585246
field max 33.015311537047
attr interpolationmode  none
attr title  "Latency time of file print, stats"
attr unit  s
statistic UCACnet.owner[212] 	latency:stats
field count 175
field mean 31.736578424321
field stddev 0.60530203689775
field sum 5553.9012242562
field sqrsum 176325.57372126
field min 29.931431481742
field max 33.430098798782
attr interpolationmode  none
attr title  "Latency time of file print, stats"
attr unit  s
statistic UCACnet.owner[213] 	latency:stats
field count 176
field mean 31.674905488331
field stddev 0.59634930939031
field sum 5574.7833659462
field sqrsum 176642.97192156
field min 29.929788519403
field max 33.222488430859
attr interpolationmode  none
attr title  "Latency time of file print, stats"
attr unit  s
statistic UCACnet.owner[214] 	latency:stats
field count 172
field mean 31.718112399161
field stddev 0.63494066668501
field sum 5455.5153326557
field sqrsum 173107.58710671
field min 30.112300807677
field max 33.315799390996
attr interpolationmode  none
attr title  "Latency time of file print, stats"
attr unit  s
statistic UCACnet.owner[215] 	latency:stats
field count 173
field mean 31.766086165041
field stddev 0.58540497720943
field sum 5495.532906552
field sqrsum 174630.51605817
field min 30.062784653735
field max 33.467420206452
attr interpolationmode  none
attr title  "Latency time of file print, stats"
attr unit  s
statistic UCACnet.owner[216] 	latency:stats
field count 177
field mean 31.634766212772
field stddev 0.67257791348181
field sum 5599.3536196606
field sqrsum 177213.85824535
field min 27.253807577729
field max 33.126040022209
attr interpolationmode  none
attr title  "Latency time of file print, stats"
attr unit  s
statistic UCACnet.owner[217] 	latency:stats
field count 173
field mean 31.69862945289
field stddev 0.62287007488483
field sum 5483.86289535
field sqrsum 173897.66823655
field min 30.134374676443
field max 33.444392125943
attr interpolationmode  none
attr title  "Latency time of file print, stats"
attr unit  s
statistic UCACnet.owner[218] 	latency:stats
field count 169
field mean 31.674973715875
field stddev 0.54784735913315
field sum 5353.0705579829
field sqrsum 169608.79219379
field min 30.124393244368
field max 32.836696185841
attr interpolationmode  none
attr title  "Latency time of file print, stats"
attr unit  s
statistic UCACnet.owner[219] 	latency:stats
field count 180
field mean 31.673411934682
field stddev 0.58849217529942
field sum 5701.2141482428
field sqrsum 180638.89606936
field min 30.388488280447
field max 33.525927871311
attr interpolationmode  none
attr title  "Latency time of file print, stats"
attr unit  s
statistic UCACnet.owner[220] 	latency:stats
field count 168
field mean 31.69966771364
field stddev 0.59664977505456
field sum 5325.5441758915
field sqrsum 168877.4312594
field min 30.087764509004
field max 33.383749648403
attr interpolationmode  none
attr title  "Latency time of file print, stats"
attr unit  s
statistic UCACnet.owner[221] 	latency:stats
field count 177
field mean 31.657307968819
field stddev 0.59572635846272
field sum 5603.3435104811
field sqrsum 177449.23178776
field min 30.126711716261
field max 33.440938425533
attr interpolationmode  none
attr title  "Latency time of file print, stats"
attr unit  s
statistic UCACnet.owner[222] 	latency:stats
field count 176
field mean 31.677542105137
field stddev 0.61925579046866
field sum 5575.2474105041
field sqrsum 176677.24319625
field min 30.056274332845
field max 33.389411606283
attr interpolationmode  none
attr title  "Latency time of file print, stats"
attr unit  s
statistic UCACnet.owner[223] 	latency:stats
field count 170
field mean 31.764805433729
field stddev 0.59187492012327
field sum 5400.0169237339
field sqrsum 171589.69031191
field min 29.404240809468
field max 33.236075347088
attr interpolationmode  none
attr title  "Latency time of file print, stats"
attr unit  s
statistic UCACnet.owner[224] 	latency:stats
field count 180
field mean 31.66688425234
field stddev 0.63103820074862
field sum 5700.0391654211
field sqrsum 180573.75993393
field min 30.178243215716
field max 33.453621834175
attr interpolationmode  none
attr title  "Latency time of file print, stats"
attr unit  s
statistic UCACnet.owner[225] 	latency:stats
field count 175
field mean 31.675058697469
field stddev 0.96158311297645
field sum 5543.1352720571
field sqrsum 175740.02283289
field min 21.876741033019
field max 33.009701892142
attr interpolationmode  none
attr title  "Latency time of file print, stats"
attr unit  s
statistic UCACnet.owner[226] 	latency:stats
field count 176
field mean 31.653190468466
field stddev 0.643693607605
field sum 5570.9615224501
field sqrsum 176411.21591819
field min 29.291806173899
field max 33.147591235015
attr interpolationmode  none
attr title  "Latency time of file print, stats"
attr unit  s
statistic UCACnet.owner[227] 	latency:stats
field count 168
field mean 31.690805836497
field stddev 0.66576121130579
field sum 5324.0553805314
field sqrsum 168797.62607159
field min 29.411541355146
field max 33.380051106603
attr interpolationmode  none
attr title  "Latency time of file print, stats"
attr unit  s
statistic UCACnet.owner[228] 	latency:stats
field count 177
field mean 31.696567576281
field stddev 0.59428597867444
field sum 5610.2924610018
field sqrsum 177889.17305795
field min 30.186946889837
field max 32.896397939109
attr interpolationmode  none
attr title  "Latency time of file print, stats"
attr unit  s
statistic UCACnet.owner[229] 	latency:stats
field count 170
field mean 31.745836547149
field stddev 0.61250774883171
field sum 5396.7922130154
field sqrsum 171389.08648377
field min 30.37323625939
field max 33.260634844661
attr interpolationmode  none
attr title  "Latency time of file print, stats"
attr unit  s
statistic UCACnet.owner[230] 	latency:stats
field count 175
field mean 31.699549730887
field stddev 0.64852297435773
field sum 5547.4212029052
field sqrsum 175923.93557607
field min 29.982751625628
field max 33.453294938504
attr interpolationmode  none
attr title  "Latency time of file print, stats"
attr unit  s
statistic UCACnet.owner[231] 	latency:stats
field count 172
field mean 31.679434176644
field stddev 0.59552909245522
field sum 5448.8626783828
field sqrsum 172677.53254529
field min 30.00984460276
field max 33.502323473604
attr interpolationmode  none
attr title  "Latency time of file print, stats"
attr unit  s
statistic UCACnet.owner[232] 	latency:stats
field count 175
field mean 31.667675837857
field stddev 0.55806258718559
field sum 5541.843271625
field sqrsum 175551.48576014
field min 29.604693054537
field max 33.175963828637
attr interpolationmode  none
attr title  "Latency time of file print, stats"
attr unit  s
statistic UCACnet.owner[233] 	latency:stats
field count 172
field mean 31.680978801201
field stddev 0.66288030705878
field sum 5449.1283538065
field sqrsum 172708.85902352
field min 28.00590274594
field max 33.216276621951
attr interpolationmode  none
attr title  "Latency time of file print, stats"
attr unit  s
statistic UCACnet.owner[234] 	latency:stats
field count 167
field mean 31.650286359661
field stddev 0.62658137726167
field sum 5285.5978220634
field sqrsum 167355.85695121
field min 30.183577436336
field max 33.294649243376
attr interpolationmode  none
attr title  "Latency time of file print, stats"
attr unit  s
statistic UCACnet.owner[235] 	latency:stats
field count 178
field mean 31.637777719202
field stddev 0.63512137839498
field sum 5631.524434018
field sqrsum 178240.31637598
field min 29.479260602865
field max 33.033066093274
attr interpolationmode  none
attr title  "Latency time of file print, stats"
attr unit  s
statistic UCACnet.owner[236] 	latency:stats
field count 167
field mean 31.720914382304
field stddev 0.59348451126612
field sum 5297.3927018448
field sqrsum 168096.60950627
field min 29.942765082787
field max 33.402410275769
attr interpolationmode  none
attr title  "Latency time of file print, stats"
attr unit  s
statistic UCACnet.owner[237] 	latency:stats
field count 172
field mean 31.686580085775
field stddev 0.59557471437683
field sum 5450.0917747533
field sqrsum 172755.42477565
field min 30.094302976129
field max 33.458442689933
attr interpolationmode  none
attr title  "Latency time of file print, stats"
attr unit  s
statistic UCACnet.owner[238] 	latency:stats
field count 171
field mean 31.681994324806
field stddev 0.59860951687083
field sum 5417.6210295418
field sqrsum 171701.95538202
field min 30.159286998677
field max 33.458178170194
attr interpolationmode  none
attr title  "Latency time of file print, stats"
attr unit  s
statistic UCACnet.owner[239] 	latency:stats
field count 176
field mean 31.667864137766
field stddev 0.60822490219947
field sum 5573.5440882468
field sqrsum 176566.97602048
field min 30.142073113295
field max 33.383393402273
attr interpolationmode  none
attr title  "Latency time of file print, stats"
attr unit  s
statistic UCACnet.owner[240] 	latency:stats
field count 171
field mean 31.738380976707
field stddev 0.60599089341678
field sum 5427.263147017
field sqrsum 172314.97366456
field min 30.080374829318
field max 33.312914818634
attr interpolationmode  none
attr title  "Latency time of file print, stats"
attr unit  s
statistic UCACnet.owner[241] 	latency:stats
field count 172
field mean 31.727880769712
field stddev 0.6550905085796
field sum 5457.1954923905
field sqrsum 173218.63147081
field min 29.599475076615
field max 33.495658665276
attr interpolationmode  none
attr title  "Latency time of file print, stats"
attr unit  s
statistic UCACnet.owner[242] 	latency:stats
field count 176
field mean 31.687239049272
field stddev 0.57867193757878
field sum 5576.9540726718
field sqrsum 176776.87757954
field min 30.37829184401
field max 33.466598213834
attr interpolationmode  none
attr title  "Latency time of file print, stats"
attr unit  s
statistic UCACnet.owner[243] 	latency:stats
field count 174
field mean 31.676928960779
field stddev 0.6292063433333
field sum 5511.7856391756
field sqrsum 174664.9329469
field min 29.539309790948
field max 33.01945423711
attr interpolationmode  none
attr title  "Latency time of file print, stats"
attr unit  s
statistic UCACnet.owner[244] 	latency:stats
field count 177
field mean 31.740102071371
field stddev 0.58646417052893
field sum 5617.9980666327
field sqrsum 178376.36555099
field min 29.619600367512
field max 33.185681920672
attr interpolationmode  none
attr title  "Latency time of file print, stats"
attr unit  s
statistic UCACnet.owner[245] 	latency:stats
field count 173
field mean 31.59892255152
field stddev 0.68153639951792
field sum 5466.613601413
field sqrsum 172818.99241072
field min 27.427435089886
field max 33.424637167917
attr interpolationmode  none
attr title  "Latency time of file print, stats"
attr unit  s
statistic UCACnet.owner[246] 	latency:stats
field count 174
field mean 31.759684123336
field stddev 0.61658863812521
field sum 5526.1850374605
field sqrsum 175575.66260477
field min 30.246762576768
field max 33.448037400187
attr interpolationmode  none
attr title  "Latency time of file print, stats"
attr unit  s
statistic UCACnet.owner[247] 	latency:stats
field count 165
field mean 31.653159502848
field stddev 0.58405820334811
field sum 5222.7713179698
field sqrsum 165373.15790812
field min 30.391737936341
field max 33.281920581213
attr interpolationmode  none
attr title  "Latency time of file print, stats"
attr unit  s
statistic UCACnet.owner[248] 	latency:stats
field count 176
field mean 31.715942554611
field stddev 0.62103198888341
field sum 5582.0058896115
field sqrsum 177106.07226238
field min 30.00659334948
field max 33.225227509192
attr interpolationmode  none
attr title  "Latency time of file print, stats"
attr unit  s
statistic UCACnet.owner[249] 	latency:stats
field count 175
field mean 31.728178360402
field stddev 0.61125973465891
field sum 5552.4312130704
field sqrsum 176233.54095476
field min 29.682183737363
field max 33.465471851702
attr interpolationmode  none
attr title  "Latency time of file print, stats"
attr unit  s
statistic UCACnet.owner[250] 	latency:stats
field count 175
field mean 31.688778747344
field stddev 0.5882701511771
field sum 5545.5362807853
field sqrsum 175791.48698529
field min 30.274016534546
field max 33.431978702575
attr interpolationmode  none
attr title  "Latency time of file print, stats"
attr unit  s
statistic UCACnet.owner[251] 	latency:stats
field count 174
field mean 31.742228231688
field stddev 0.55181208170955
field sum 5523.1477123137
field sqrsum 175369.69314881
field min 30.28725202797
field max 33.144700122993
attr interpolationmode  none
attr title  "Latency time of file print, stats"
attr unit  s
statistic UCACnet.owner[252] 	latency:stats
field count 174
field mean 31.577930185141
field stddev 1.5492172777151
field sum 5494.5598522146
field sqrsum 173922.04024334
field min 12.61420969316
field max 32.999232729615
attr interpolationmode  none
attr title  "Latency time of file print, stats"
attr unit  s
statistic UCACnet.owner[253] 	latency:stats
field count 175
field mean 31.717784978206
field stddev 0.59144119568532
field sum 5550.6123711861
field sqrsum 176113.99535436
field min 29.695384158769
field max 33.120135264472
attr interpolationmode  none
attr title  "Latency time of file print, stats"
attr unit  s
statistic UCACnet.owner[254] 	latency:stats
field count 173
field mean 31.664957705499
field stddev 0.62318069377454
field sum 5478.0376830514
field sqrsum 173528.62846142
[...]
field mean 31.705733640316
field stddev 0.61282997165082
field sum 5453.3861861344
field sqrsum 172967.83071354
field min 30.026696181441
field max 33.376988221803
attr interpolationmode  none
attr title  "Latency time of file print, stats"
attr unit  s
statistic UCACnet.owner[437] 	latency:stats
field count 173
field mean 31.692028711991
field stddev 0.62018347778945
field sum 5482.7209671744
field sqrsum 173824.70624946
field min 29.570844299087
field max 33.002007430652
attr interpolationmode  none
attr title  "Latency time of file print, stats"
attr unit  s
statistic UCACnet.owner[438] 	latency:stats
field count 170
field mean 31.674187084891
field stddev 0.59470087432916
field sum 5384.6118044314
field sqrsum 170612.97175603
field min 29.824058586079
field max 33.065757773544
attr interpolationmode  none
attr title  "Latency time of file print, stats"
attr unit  s
statistic UCACnet.owner[439] 	latency:stats
field count 177
field mean 31.673764493383
field stddev 0.5761073260507
field sum 5606.2563153288
field sqrsum 177629.65655986
field min 30.063281303402
field max 33.208901214681
attr interpolationmode  none
attr title  "Latency time of file print, stats"
attr unit  s
statistic UCACnet.owner[440] 	latency:stats
field count 178
field mean 31.716730761478
field stddev 0.60034052812227
field sum 5645.5780755431
field sqrsum 179123.0721636
field min 30.277628877215
field max 33.444964577669
attr interpolationmode  none
attr title  "Latency time of file print, stats"
attr unit  s
statistic UCACnet.owner[441] 	latency:stats
field count 178
field mean 31.605739126755
field stddev 1.7263394963663
field sum 5625.8215645624
field sqrsum 178335.75264927
field min 10.185453987689
field max 33.390149753509
attr interpolationmode  none
attr title  "Latency time of file print, stats"
attr unit  s
statistic UCACnet.owner[442] 	latency:stats
field count 175
field mean 31.711559197868
field stddev 0.61674913697135
field sum 5549.5228596269
field sqrsum 176050.20871563
field min 29.80112502573
field max 33.027973789914
attr interpolationmode  none
attr title  "Latency time of file print, stats"
attr unit  s
statistic UCACnet.owner[443] 	latency:stats
field count 167
field mean 31.661438415878
field stddev 0.63178967473337
field sum 5287.4602154516
field sqrsum 167474.85624798
field min 29.618374568475
field max 33.395804368514
attr interpolationmode  none
attr title  "Latency time of file print, stats"
attr unit  s
statistic UCACnet.owner[444] 	latency:stats
field count 177
field mean 31.614877746662
field stddev 0.67735385305561
field sum 5595.8333611592
field sqrsum 176992.33785437
field min 28.696260957912
field max 32.998770938201
attr interpolationmode  none
attr title  "Latency time of file print, stats"
attr unit  s
statistic UCACnet.owner[445] 	latency:stats
field count 177
field mean 31.674623867879
field stddev 0.6007448695408
field sum 5606.4084246145
field sqrsum 177644.39551347
field min 30.152969427924
field max 33.280373089289
attr interpolationmode  none
attr title  "Latency time of file print, stats"
attr unit  s
statistic UCACnet.owner[446] 	latency:stats
field count 175
field mean 31.752722574448
field stddev 0.60043166854143
field sum 5556.7264505284
field sqrsum 176503.92357054
field min 30.192932966392
field max 33.204619538158
attr interpolationmode  none
attr title  "Latency time of file print, stats"
attr unit  s
statistic UCACnet.owner[447] 	latency:stats
field count 173
field mean 31.706951950815
field stddev 0.60090245546087
field sum 5485.3026874909
field sqrsum 173984.33515484
field min 29.795865853323
field max 33.295361756265
attr interpolationmode  none
attr title  "Latency time of file print, stats"
attr unit  s
statistic UCACnet.owner[448] 	latency:stats
field count 175
field mean 31.623429772841
field stddev 0.76649471397946
field sum 5534.1002102471
field sqrsum 175109.45681612
field min 25.622529819284
field max 33.459148051771
attr interpolationmode  none
attr title  "Latency time of file print, stats"
attr unit  s
statistic UCACnet.owner[449] 	latency:stats
field count 172
field mean 31.711312343454
field stddev 0.61278399546257
field sum 5454.3457230741
field sqrsum 173028.67207608
field min 29.709138104929
field max 33.485430999912
attr interpolationmode  none
attr title  "Latency time of file print, stats"
attr unit  s
statistic UCACnet.owner[450] 	latency:stats
field count 176
field mean 31.636001991176
field stddev 0.61733911642841
field sum 5567.9363504469
field sqrsum 176213.93929679
field min 29.915801271408
field max 32.884763545248
attr interpolationmode  none
attr title  "Latency time of file print, stats"
attr unit  s
statistic UCACnet.owner[451] 	latency:stats
field count 177
field mean 31.712974670298
field stddev 0.60085633581152
field sum 5613.1965166428
field sqrsum 178074.69993889
field min 29.486620873944
field max 33.321936679552
attr interpolationmode  none
attr title  "Latency time of file print, stats"
attr unit  s
statistic UCACnet.owner[452] 	latency:stats
field count 172
field mean 31.714678091212
field stddev 0.6530664801384
field sum 5454.9246316885
field sqrsum 173074.10949233
field min 29.635797324431
field max 33.498874672386
attr interpolationmode  none
attr title  "Latency time of file print, stats"
attr unit  s
statistic UCACnet.owner[453] 	latency:stats
field count 178
field mean 31.731207726986
field stddev 0.60594665101167
field sum 5648.1549754036
field sqrsum 179287.76812661
field min 30.104307396629
field max 33.414686145009
attr interpolationmode  none
attr title  "Latency time of file print, stats"
attr unit  s
statistic UCACnet.owner[454] 	latency:stats
field count 175
field mean 31.684989586539
field stddev 0.72727132849995
field sum 5544.8731776443
field sqrsum 175781.28159617
field min 26.900822569923
field max 33.423331448306
attr interpolationmode  none
attr title  "Latency time of file print, stats"
attr unit  s
statistic UCACnet.owner[455] 	latency:stats
field count 174
field mean 31.686004167287
field stddev 0.5452835887836
field sum 5513.3647251079
field sqrsum 174747.93647079
field min 30.35314325144
field max 33.26197181451
attr interpolationmode  none
attr title  "Latency time of file print, stats"
attr unit  s
statistic UCACnet.owner[456] 	latency:stats
field count 174
field mean 31.672516440885
field stddev 0.63301774615785
field sum 5511.017860714
field sqrsum 174617.12688326
field min 29.67179452874
field max 33.387726636617
attr interpolationmode  none
attr title  "Latency time of file print, stats"
attr unit  s
statistic UCACnet.owner[457] 	latency:stats
field count 176
field mean 31.630066597787
field stddev 0.67097137477944
field sum 5566.8917212105
field sqrsum 176159.94133706
field min 27.435606212876
field max 33.096613890074
attr interpolationmode  none
attr title  "Latency time of file print, stats"
attr unit  s
statistic UCACnet.owner[458] 	latency:stats
field count 176
field mean 31.699900824772
field stddev 0.61882178355787
field sum 5579.18254516
field sqrsum 176926.54793484
field min 30.143759015613
field max 33.380715829144
attr interpolationmode  none
attr title  "Latency time of file print, stats"
attr unit  s
statistic UCACnet.owner[459] 	latency:stats
field count 171
field mean 31.690563717087
field stddev 0.62694621772174
field sum 5419.0863956218
field sqrsum 171800.72317404
field min 30.157085661851
field max 32.961851150845
attr interpolationmode  none
attr title  "Latency time of file print, stats"
attr unit  s
statistic UCACnet.owner[460] 	latency:stats
field count 176
field mean 31.691099903461
field stddev 0.67606694888216
field sum 5577.6335830091
field sqrsum 176841.32974493
field min 28.114492921774
field max 33.332084220866
attr interpolationmode  none
attr title  "Latency time of file print, stats"
attr unit  s
statistic UCACnet.owner[461] 	latency:stats
field count 170
field mean 31.648525406451
field stddev 0.55833788659117
field sum 5380.2493190966
field sqrsum 170329.64153053
field min 29.679713991426
field max 32.768132013843
attr interpolationmode  none
attr title  "Latency time of file print, stats"
attr unit  s
statistic UCACnet.owner[462] 	latency:stats
field count 172
field mean 31.6927684482
field stddev 0.69951755718898
field sum 5451.1561730903
field sqrsum 172845.90491172
field min 26.808772312278
field max 33.096894710827
attr interpolationmode  none
attr title  "Latency time of file print, stats"
attr unit  s
statistic UCACnet.owner[463] 	latency:stats
field count 175
field mean 31.685581321473
field stddev 0.60577022031322
field sum 5544.9767312578
field sqrsum 175759.66175935
field min 30.021743916548
field max 33.429537603268
attr interpolationmode  none
attr title  "Latency time of file print, stats"
attr unit  s
statistic UCACnet.owner[464] 	latency:stats
field count 178
field mean 31.710403088591
field stddev 0.55906283396734
field sum 5644.4517497693
field sqrsum 179043.16177095
field min 30.432633949786
field max 33.420029121123
attr interpolationmode  none
attr title  "Latency time of file print, stats"
attr unit  s
statistic UCACnet.owner[465] 	latency:stats
field count 170
field mean 31.681283848201
field stddev 0.54355853041269
field sum 5385.8182541942
field sqrsum 170679.56890899
field min 30.433239804191
field max 32.984619880337
attr interpolationmode  none
attr title  "Latency time of file print, stats"
attr unit  s
statistic UCACnet.owner[466] 	latency:stats
field count 174
field mean 31.596041440287
field stddev 1.4962275375137
field sum 5497.71121061
field sqrsum 174093.20579118
field min 13.694030054709
field max 33.335046732676
attr interpolationmode  none
attr title  "Latency time of file print, stats"
attr unit  s
statistic UCACnet.owner[467] 	latency:stats
field count 173
field mean 31.753670242244
field stddev 0.61059880361767
field sum 5493.3849519083
field sqrsum 174499.26119123
field min 29.638992497492
field max 33.452499727154
attr interpolationmode  none
attr title  "Latency time of file print, stats"
attr unit  s
statistic UCACnet.owner[468] 	latency:stats
field count 177
field mean 31.643396518388
field stddev 0.69897599645654
field sum 5600.8811837547
field sqrsum 177316.89202
field min 26.628757322793
field max 33.095410019571
attr interpolationmode  none
attr title  "Latency time of file print, stats"
attr unit  s
statistic UCACnet.owner[469] 	latency:stats
field count 175
field mean 31.634227078158
field stddev 0.82213099075319
field sum 5535.9897386776
field sqrsum 175244.36298536
field min 24.289261094313
field max 33.044647969158
attr interpolationmode  none
attr title  "Latency time of file print, stats"
attr unit  s
statistic UCACnet.owner[470] 	latency:stats
field count 173
field mean 31.668501896531
field stddev 0.60500635309422
field sum 5478.6508280998
field sqrsum 173563.62176232
field min 30.16797209761
field max 33.522803985626
attr interpolationmode  none
attr title  "Latency time of file print, stats"
attr unit  s
statistic UCACnet.owner[471] 	latency:stats
field count 166
field mean 31.693840093661
field stddev 0.64175926163279
field sum 5261.1774555478
field sqrsum 166814.87304724
field min 30.188714585186
field max 33.447669758334
attr interpolationmode  none
attr title  "Latency time of file print, stats"
attr unit  s
statistic UCACnet.owner[472] 	latency:stats
field count 179
field mean 31.651354258347
field stddev 0.60053562380402
field sum 5665.5924122441
field sqrsum 179387.86698365
field min 29.872656342516
field max 33.335614203081
attr interpolationmode  none
attr title  "Latency time of file print, stats"
attr unit  s
statistic UCACnet.owner[473] 	latency:stats
field count 174
field mean 31.66603388892
field stddev 0.58234112401691
field sum 5509.889896672
field sqrsum 174535.02815719
field min 29.967710730375
field max 33.481951140826
attr interpolationmode  none
attr title  "Latency time of file print, stats"
attr unit  s
statistic UCACnet.owner[474] 	latency:stats
field count 174
field mean 31.668403381778
field stddev 0.61600889775133
field sum 5510.3021884294
field sqrsum 174568.12024312
field min 29.763763465372
field max 33.150560059702
attr interpolationmode  none
attr title  "Latency time of file print, stats"
attr unit  s
statistic UCACnet.owner[475] 	latency:stats
field count 170
field mean 31.682900571207
field stddev 0.72068764125227
field sum 5386.0930971052
field sqrsum 170734.82908713
field min 26.848811058929
field max 33.388653336581
attr interpolationmode  none
attr title  "Latency time of file print, stats"
attr unit  s
statistic UCACnet.owner[476] 	latency:stats
field count 168
field mean 31.651974078685
field stddev 0.62457852176175
field sum 5317.531645219
field sqrsum 168375.52021814
field min 28.747847326878
field max 33.059447406899
attr interpolationmode  none
attr title  "Latency time of file print, stats"
attr unit  s
statistic UCACnet.owner[477] 	latency:stats
field count 179
field mean 31.690558852117
field stddev 0.74602138629702
field sum 5672.6100345289
field sqrsum 179867.24767211
field min 25.786427570591
field max 33.452889646532
attr interpolationmode  none
attr title  "Latency time of file print, stats"
attr unit  s
statistic UCACnet.owner[478] 	latency:stats
field count 172
field mean 31.745106381892
field stddev 0.64764537797127
field sum 5460.1582976854
field sqrsum 173405.03103758
field min 29.822770598211
field max 33.362150946311
attr interpolationmode  none
attr title  "Latency time of file print, stats"
attr unit  s
statistic UCACnet.owner[479] 	latency:stats
field count 172
field mean 31.698385708312
field stddev 0.61363626116347
field sum 5452.1223418297
field sqrsum 172887.86687806
field min 30.202962866547
field max 33.36124453857
attr interpolationmode  none
attr title  "Latency time of file print, stats"
attr unit  s
statistic UCACnet.owner[480] 	latency:stats
field count 172
field mean 31.714942501658
field stddev 0.62510065973168
field sum 5454.9701102851
field sqrsum 173070.8817887
field min 29.984920076398
field max 33.327287431416
attr interpolationmode  none
attr title  "Latency time of file print, stats"
attr unit  s
statistic UCACnet.owner[481] 	latency:stats
field count 174
field mean 31.682298753161
field stddev 0.56806407288123
field sum 5512.7199830499
field sqrsum 174711.46799033
field min 30.241900821687
field max 33.173207968622
attr interpolationmode  none
attr title  "Latency time of file print, stats"
attr unit  s
statistic UCACnet.owner[482] 	latency:stats
field count 169
field mean 31.638480234922
field stddev 0.96251960683969
field sum 5346.9031597017
field sqrsum 169323.53252718
field min 21.991681607406
field max 33.363804536475
attr interpolationmode  none
attr title  "Latency time of file print, stats"
attr unit  s
statistic UCACnet.owner[483] 	latency:stats
field count 174
field mean 31.688835414774
field stddev 0.58938025392881
field sum 5513.8573621707
field sqrsum 174787.81330185
field min 30.075020406798
field max 33.417402511161
attr interpolationmode  none
attr title  "Latency time of file print, stats"
attr unit  s
statistic UCACnet.owner[484] 	latency:stats
field count 174
field mean 31.704517307569
field stddev 0.61120728251287
field sum 5516.586011517
field sqrsum 174965.32504203
field min 29.427168291211
field max 33.192620909259
attr interpolationmode  none
attr title  "Latency time of file print, stats"
attr unit  s
statistic UCACnet.owner[485] 	latency:stats
field count 172
field mean 31.673266299269
field stddev 0.69351297337458
field sum 5447.8018034743
field sqrsum 172631.92146885
field min 28.708016371776
field max 33.05228229749
attr interpolationmode  none
attr title  "Latency time of file print, stats"
attr unit  s
statistic UCACnet.owner[486] 	latency:stats
field count 175
field mean 31.631546855118
field stddev 0.87309771089466
field sum 5535.5206996457
field sqrsum 175229.72251094
field min 22.939587158688
field max 33.51174343813
attr interpolationmode  none
attr title  "Latency time of file print, stats"
attr unit  s
statistic UCACnet.owner[487] 	latency:stats
field count 177
field mean 31.629955594976
field stddev 0.79435290650391
field sum 5598.5021403108
field sqrsum 177191.42948746
field min 25.325393098219
field max 33.124276901213
attr interpolationmode  none
attr title  "Latency time of file print, stats"
attr unit  s
statistic UCACnet.owner[488] 	latency:stats
field count 172
field mean 31.693563159911
field stddev 0.62377156469832
field sum 5451.2928635046
field sqrsum 172837.42922766
field min 30.066265387858
field max 33.403880771768
attr interpolationmode  none
attr title  "Latency time of file print, stats"
attr unit  s
statistic UCACnet.owner[489] 	latency:stats
field count 174
field mean 31.703168537652
field stddev 0.60067134842988
field sum 5516.3513255514
field sqrsum 174948.23523676
field min 30.362254415345
field max 33.506014054827
attr interpolationmode  none
attr title  "Latency time of file print, stats"
attr unit  s
statistic UCACnet.owner[490] 	latency:stats
field count 167
field mean 31.66462885876
field stddev 0.64090561800605
field sum 5287.993019413
field sqrsum 167510.52252928
field min 29.994987814249
field max 33.239372848404
attr interpolationmode  none
attr title  "Latency time of file print, stats"
attr unit  s
statistic UCACnet.owner[491] 	latency:stats
field count 172
field mean 31.738105660182
field stddev 0.61093212195945
field sum 5458.9541735513
field sqrsum 173320.68806212
field min 30.210489633277
field max 33.255553942669
attr interpolationmode  none
attr title  "Latency time of file print, stats"
attr unit  s
statistic UCACnet.owner[492] 	latency:stats
field count 177
field mean 31.672006605267
field stddev 0.61189923798462
field sum 5605.9451691323
field sqrsum 177617.43046476
field min 30.131349894298
field max 33.177435843348
attr interpolationmode  none
attr title  "Latency time of file print, stats"
attr unit  s
statistic UCACnet.owner[493] 	latency:stats
field count 179
field mean 31.668841884425
field stddev 0.61084559535446
field sum 5668.7226973121
field sqrsum 179588.30034459
field min 29.981560860737
field max 33.241053354022
attr interpolationmode  none
attr title  "Latency time of file print, stats"
attr unit  s
statistic UCACnet.owner[494] 	latency:stats
field count 169
field mean 31.667844341107
field stddev 0.79199327925648
field sum 5351.865693647
field sqrsum 169587.42828446
field min 25.58341986966
field max 33.319805643585
attr interpolationmode  none
attr title  "Latency time of file print, stats"
attr unit  s
statistic UCACnet.owner[495] 	latency:stats
field count 177
field mean 31.656351527317
field stddev 0.69726251446365
field sum 5603.1742203351
field sqrsum 177461.6195902
field min 26.457564254571
field max 33.37188756988
attr interpolationmode  none
attr title  "Latency time of file print, stats"
attr unit  s
statistic UCACnet.owner[496] 	latency:stats
field count 173
field mean 31.717204467393
field stddev 0.84781884655352
field sum 5487.076372859
field sqrsum 174158.35629518
field min 23.687249802796
field max 33.253758373002
attr interpolationmode  none
attr title  "Latency time of file print, stats"
attr unit  s
statistic UCACnet.owner[497] 	latency:stats
field count 172
field mean 31.680262426771
field stddev 0.80443552841953
field sum 5449.0051374046
field sqrsum 172736.56964262
field min 24.895264510858
field max 33.031209536264
attr interpolationmode  none
attr title  "Latency time of file print, stats"
attr unit  s
statistic UCACnet.owner[498] 	latency:stats
field count 177
field mean 31.708258475271
field stddev 0.5874300250487
field sum 5612.361750123
field sqrsum 178018.95005967
field min 29.867888090671
field max 33.327146732659
attr interpolationmode  none
attr title  "Latency time of file print, stats"
attr unit  s
statistic UCACnet.owner[499] 	latency:stats
field count 172
field mean 31.629801302129
field stddev 0.89102952353201
field sum 5440.3258239662
field sqrsum 172212.18747851
field min 22.464601273914
field max 32.717763644879
attr interpolationmode  none
attr title  "Latency time of file print, stats"
attr unit  s
