version 2
run Owner-700-0-20110907-23:24:28-2538
attr configname Owner-700
attr datetime 20110907-23:24:28
attr experiment Owner-700
attr inifile nocrypto.ini
attr iterationvars ""
attr iterationvars2 $repetition=0
attr measurement ""
attr network UCACnet
attr processid 2538
attr repetition 0
attr replication #0
attr resultdir results
attr runnumber 0
attr seedset 0

statistic UCACnet.owner[0] 	latency:stats
field count 142
field mean 48.095480121682
field stddev 0.50693264762444
field sum 6829.5581772788
field sqrsum 328507.11383519
field min 46.563844829424
field max 49.866085198123
attr interpolationmode  none
attr title  "Latency time of file print, stats"
attr unit  s
statistic UCACnet.owner[1] 	latency:stats
field count 141
field mean 48.024053834421
field stddev 0.52217813828426
field sum 6771.3915906534
field sqrsum 325227.84808462
field min 46.750104884133
field max 50.243226358941
attr interpolationmode  none
attr title  "Latency time of file print, stats"
attr unit  s
statistic UCACnet.owner[2] 	latency:stats
field count 133
field mean 48.089112799518
field stddev 0.56921776169563
field sum 6395.8520023359
field sqrsum 307613.61755891
field min 46.372404147596
field max 50.659522663307
attr interpolationmode  none
attr title  "Latency time of file print, stats"
attr unit  s
statistic UCACnet.owner[3] 	latency:stats
field count 138
field mean 48.08908456341
field stddev 0.47263065026376
field sum 6636.2936697506
field sqrsum 319163.89049549
field min 47.051353944808
field max 49.640788123034
attr interpolationmode  none
attr title  "Latency time of file print, stats"
attr unit  s
statistic UCACnet.owner[4] 	latency:stats
field count 141
field mean 48.075101192829
field stddev 0.51865288626044
field sum 6778.5892681889
field sqrsum 325919.02512711
field min 46.36970324582
field max 50.272598929073
attr interpolationmode  none
attr title  "Latency time of file print, stats"
attr unit  s
statistic UCACnet.owner[5] 	latency:stats
field count 140
field mean 48.067620488383
field stddev 0.52134899994384
field sum 6729.4668683736
field sqrsum 323507.24038251
field min 46.557717157127
field max 49.625895320203
attr interpolationmode  none
attr title  "Latency time of file print, stats"
attr unit  s
statistic UCACnet.owner[6] 	latency:stats
field count 142
field mean 48.079357422079
field stddev 0.48957123523208
field sum 6827.2687539353
field sqrsum 328284.48951625
field min 46.814023274622
field max 49.794818843961
attr interpolationmode  none
attr title  "Latency time of file print, stats"
attr unit  s
statistic UCACnet.owner[7] 	latency:stats
field count 138
field mean 48.085266167281
field stddev 0.49074543621346
field sum 6635.7667310848
field sqrsum 319115.60334659
field min 46.973402809075
field max 49.673189701753
attr interpolationmode  none
attr title  "Latency time of file print, stats"
attr unit  s
statistic UCACnet.owner[8] 	latency:stats
field count 144
field mean 48.006907358613
field stddev 0.56619437483206
field sum 6912.9946596402
field sqrsum 331917.33657396
field min 46.215125653461
field max 49.524093122976
attr interpolationmode  none
attr title  "Latency time of file print, stats"
attr unit  s
statistic UCACnet.owner[9] 	latency:stats
field count 143
field mean 48.077836350719
field stddev 0.49897397232879
field sum 6875.1305981528
field sqrsum 330576.75824137
field min 46.732995461215
field max 50.420765979847
attr interpolationmode  none
attr title  "Latency time of file print, stats"
attr unit  s
statistic UCACnet.owner[10] 	latency:stats
field count 139
field mean 48.080658567095
field stddev 0.51672288476598
field sum 6683.2115408262
field sqrsum 321370.0585766
field min 46.942541706219
field max 50.435237237142
attr interpolationmode  none
attr title  "Latency time of file print, stats"
attr unit  s
statistic UCACnet.owner[11] 	latency:stats
field count 142
field mean 48.049251834212
field stddev 0.45985447025523
field sum 6822.993760458
field sqrsum 327869.56218437
field min 46.843329887644
field max 49.308578021436
attr interpolationmode  none
attr title  "Latency time of file print, stats"
attr unit  s
statistic UCACnet.owner[12] 	latency:stats
field count 141
field mean 48.027565119083
field stddev 0.49423243625059
field sum 6771.8866817907
field sqrsum 325271.4257869
field min 46.313719728815
field max 49.049844721689
attr interpolationmode  none
attr title  "Latency time of file print, stats"
attr unit  s
statistic UCACnet.owner[13] 	latency:stats
field count 143
field mean 48.04625578084
field stddev 0.5136388451037
field sum 6870.6145766602
field sqrsum 330144.76845236
field min 45.701238852405
field max 49.31662187157
attr interpolationmode  none
attr title  "Latency time of file print, stats"
attr unit  s
statistic UCACnet.owner[14] 	latency:stats
field count 140
field mean 48.046284311005
field stddev 0.5067312304623
field sum 6726.4798035408
field sqrsum 323218.0529922
field min 46.667369852433
field max 49.314192072273
attr interpolationmode  none
attr title  "Latency time of file print, stats"
attr unit  s
statistic UCACnet.owner[15] 	latency:stats
field count 140
field mean 47.875579225115
field stddev 1.5763027268682
field sum 6702.5810915161
field sqrsum 321235.32956949
field min 30.40298355285
field max 48.987044195226
attr interpolationmode  none
attr title  "Latency time of file print, stats"
attr unit  s
statistic UCACnet.owner[16] 	latency:stats
field count 141
field mean 48.041003343844
field stddev 0.51945047637777
field sum 6773.7814714821
field sqrsum 325457.03435358
field min 46.587707444498
field max 49.202718179434
attr interpolationmode  none
attr title  "Latency time of file print, stats"
attr unit  s
statistic UCACnet.owner[17] 	latency:stats
field count 142
field mean 48.018537715126
field stddev 0.55829491291294
field sum 6818.6323555479
field sqrsum 327464.70367303
field min 45.063268835363
field max 49.175411894734
attr interpolationmode  none
attr title  "Latency time of file print, stats"
attr unit  s
statistic UCACnet.owner[18] 	latency:stats
field count 142
field mean 48.025143553282
field stddev 0.49138761173487
field sum 6819.570384566
field sqrsum 327544.89280217
field min 46.762705769672
field max 49.487209536264
attr interpolationmode  none
attr title  "Latency time of file print, stats"
attr unit  s
statistic UCACnet.owner[19] 	latency:stats
field count 142
field mean 48.079253083994
field stddev 0.46684003381561
field sum 6827.2539379272
field sqrsum 328279.99943632
field min 46.645562207045
field max 49.209566071084
attr interpolationmode  none
attr title  "Latency time of file print, stats"
attr unit  s
statistic UCACnet.owner[20] 	latency:stats
field count 136
field mean 48.044134704827
field stddev 0.52071621807489
field sum 6534.0023198564
field sqrsum 313957.0922431
field min 46.890744679771
field max 50.33186906755
attr interpolationmode  none
attr title  "Latency time of file print, stats"
attr unit  s
statistic UCACnet.owner[21] 	latency:stats
field count 141
field mean 48.109243620463
field stddev 0.50014203421786
field sum 6783.4033504852
field sqrsum 326379.42425197
field min 46.862685237152
field max 50.154718240531
attr interpolationmode  none
attr title  "Latency time of file print, stats"
attr unit  s
statistic UCACnet.owner[22] 	latency:stats
field count 143
field mean 47.995659990153
field stddev 0.50801920092632
field sum 6863.3793785919
field sqrsum 329449.07089653
field min 46.866358943191
field max 49.68367377983
attr interpolationmode  none
attr title  "Latency time of file print, stats"
attr unit  s
statistic UCACnet.owner[23] 	latency:stats
field count 142
field mean 48.088432006047
field stddev 0.48933826687681
field sum 6828.5573448587
field sqrsum 328408.37830109
field min 46.439392901295
field max 49.238004571569
attr interpolationmode  none
attr title  "Latency time of file print, stats"
attr unit  s
statistic UCACnet.owner[24] 	latency:stats
field count 142
field mean 48.028448463529
field stddev 0.50356694446806
field sum 6820.0396818211
field sqrsum 327591.6791107
field min 46.856181154482
field max 49.970501714778
attr interpolationmode  none
attr title  "Latency time of file print, stats"
attr unit  s
statistic UCACnet.owner[25] 	latency:stats
field count 143
field mean 48.077045701781
field stddev 0.47839415237016
field sum 6875.0175353546
field sqrsum 330563.03050482
field min 46.841069112495
field max 49.234953126227
attr interpolationmode  none
attr title  "Latency time of file print, stats"
attr unit  s
statistic UCACnet.owner[26] 	latency:stats
field count 140
field mean 48.043959750795
field stddev 0.49157597090465
field sum 6726.1543651113
field sqrsum 323184.67851903
field min 46.63324715083
field max 49.214951673209
attr interpolationmode  none
attr title  "Latency time of file print, stats"
attr unit  s
statistic UCACnet.owner[27] 	latency:stats
field count 140
field mean 48.07982728856
field stddev 0.49174384907794
field sum 6731.1758203984
field sqrsum 323667.3827635
field min 46.766161385673
field max 49.773137601031
attr interpolationmode  none
attr title  "Latency time of file print, stats"
attr unit  s
statistic UCACnet.owner[28] 	latency:stats
field count 142
field mean 47.91092064948
field stddev 1.4154641369024
field sum 6803.3507322261
field sqrsum 326237.29604219
field min 32.39197668913
field max 49.570505408124
attr interpolationmode  none
attr title  "Latency time of file print, stats"
attr unit  s
statistic UCACnet.owner[29] 	latency:stats
field count 142
field mean 48.082473996205
field stddev 0.48584010302833
field sum 6827.7113074612
field sqrsum 328326.53312
field min 46.343805934408
field max 49.246836501654
attr interpolationmode  none
attr title  "Latency time of file print, stats"
attr unit  s
statistic UCACnet.owner[30] 	latency:stats
field count 142
field mean 47.971816452402
field stddev 1.2654371717599
field sum 6811.9979362411
field sqrsum 327009.70237573
field min 34.485219982538
field max 49.602713243617
attr interpolationmode  none
attr title  "Latency time of file print, stats"
attr unit  s
statistic UCACnet.owner[31] 	latency:stats
field count 141
field mean 48.046162998893
field stddev 0.53512584763002
field sum 6774.5089828439
field sqrsum 325529.25318137
field min 46.427938701856
field max 50.4987051607
attr interpolationmode  none
attr title  "Latency time of file print, stats"
attr unit  s
statistic UCACnet.owner[32] 	latency:stats
field count 137
field mean 47.83156343399
field stddev 2.239474919645
field sum 6552.9241904567
field sqrsum 314118.68281049
field min 22.50657435979
field max 49.623644901496
attr interpolationmode  none
attr title  "Latency time of file print, stats"
attr unit  s
statistic UCACnet.owner[33] 	latency:stats
field count 142
field mean 48.034884926443
field stddev 0.50654977497378
field sum 6820.9536595549
field sqrsum 327679.90369242
field min 46.282858261562
field max 49.428886308397
attr interpolationmode  none
attr title  "Latency time of file print, stats"
attr unit  s
statistic UCACnet.owner[34] 	latency:stats
field count 141
field mean 48.037410177022
field stddev 0.52224586054936
field sum 6773.2748349601
field sqrsum 325408.76519212
field min 46.659556879191
field max 49.875953609394
attr interpolationmode  none
attr title  "Latency time of file print, stats"
attr unit  s
statistic UCACnet.owner[35] 	latency:stats
field count 142
field mean 48.047672257691
field stddev 0.50413131089629
field sum 6822.7694605922
field sqrsum 327854.0258537
field min 46.594229682498
field max 49.517974664126
attr interpolationmode  none
attr title  "Latency time of file print, stats"
attr unit  s
statistic UCACnet.owner[36] 	latency:stats
field count 140
field mean 48.063577178116
field stddev 0.53295991387366
field sum 6728.9008049362
field sqrsum 323454.52559344
field min 46.411234230873
field max 50.304987657407
attr interpolationmode  none
attr title  "Latency time of file print, stats"
attr unit  s
statistic UCACnet.owner[37] 	latency:stats
field count 146
field mean 47.977821917511
field stddev 0.93038777047562
field sum 7004.7619999565
field sqrsum 336198.73891196
field min 39.086521707131
field max 49.611588931035
attr interpolationmode  none
attr title  "Latency time of file print, stats"
attr unit  s
statistic UCACnet.owner[38] 	latency:stats
field count 136
field mean 47.998624631843
field stddev 0.54627264817796
field sum 6527.8129499306
field sqrsum 313366.32931443
field min 46.207348942938
field max 49.718530308048
attr interpolationmode  none
attr title  "Latency time of file print, stats"
attr unit  s
statistic UCACnet.owner[39] 	latency:stats
field count 143
field mean 48.042076890591
field stddev 0.47641093526159
field sum 6870.0169953546
field sqrsum 330082.11409835
field min 46.918480674591
field max 49.481908084663
attr interpolationmode  none
attr title  "Latency time of file print, stats"
attr unit  s
statistic UCACnet.owner[40] 	latency:stats
field count 143
field mean 48.043318001699
field stddev 0.51442121665993
field sum 6870.194474243
field sqrsum 330104.51520429
field min 45.564611552362
field max 49.489149591556
attr interpolationmode  none
attr title  "Latency time of file print, stats"
attr unit  s
statistic UCACnet.owner[41] 	latency:stats
field count 138
field mean 48.065309123217
field stddev 0.46565560935785
field sum 6633.012659004
field sqrsum 318847.51028831
field min 46.798034579262
field max 49.670805865162
attr interpolationmode  none
attr title  "Latency time of file print, stats"
attr unit  s
statistic UCACnet.owner[42] 	latency:stats
field count 139
field mean 48.032167744743
field stddev 0.50066808640539
field sum 6676.4713165193
field sqrsum 320719.98247554
field min 46.828410012406
field max 50.208434673165
attr interpolationmode  none
attr title  "Latency time of file print, stats"
attr unit  s
statistic UCACnet.owner[43] 	latency:stats
field count 139
field mean 48.074543137286
field stddev 0.56574138389625
field sum 6682.3614960827
field sqrsum 321295.64473962
field min 46.174620873944
field max 50.204809494855
attr interpolationmode  none
attr title  "Latency time of file print, stats"
attr unit  s
statistic UCACnet.owner[44] 	latency:stats
field count 142
field mean 48.058532422411
field stddev 0.50908698274245
field sum 6824.3116039824
field sqrsum 328002.94338802
field min 46.406669550998
field max 49.6829088932
attr interpolationmode  none
attr title  "Latency time of file print, stats"
attr unit  s
statistic UCACnet.owner[45] 	latency:stats
field count 143
field mean 48.036296545267
field stddev 0.52877714404365
field sum 6869.1904059732
field sqrsum 330010.1713153
field min 46.217904327337
field max 49.671186031882
attr interpolationmode  none
attr title  "Latency time of file print, stats"
attr unit  s
statistic UCACnet.owner[46] 	latency:stats
field count 142
field mean 48.110448180068
field stddev 0.53749359053929
field sum 6831.6836415696
field sqrsum 328716.09663009
field min 46.814407537496
field max 50.403470503879
attr interpolationmode  none
attr title  "Latency time of file print, stats"
attr unit  s
statistic UCACnet.owner[47] 	latency:stats
field count 140
field mean 48.075101580784
field stddev 0.50250228208564
field sum 6730.5142213097
field sqrsum 323605.25356792
field min 46.787095182811
field max 50.607440826678
attr interpolationmode  none
attr title  "Latency time of file print, stats"
attr unit  s
statistic UCACnet.owner[48] 	latency:stats
field count 144
field mean 47.925060864713
field stddev 1.0465276015242
field sum 6901.2087645186
field sqrsum 330897.46654261
field min 37.2500861494
field max 49.331311914054
attr interpolationmode  none
attr title  "Latency time of file print, stats"
attr unit  s
statistic UCACnet.owner[49] 	latency:stats
field count 140
field mean 48.103696681191
field stddev 0.50943332007291
field sum 6734.5175353668
field sqrsum 323991.2624162
field min 47.055647699026
field max 50.634553221544
attr interpolationmode  none
attr title  "Latency time of file print, stats"
attr unit  s
statistic UCACnet.owner[50] 	latency:stats
field count 140
field mean 48.016129473807
field stddev 0.54738532733351
field sum 6722.258126333
field sqrsum 322818.46521719
field min 46.376948983057
field max 50.408511500288
attr interpolationmode  none
attr title  "Latency time of file print, stats"
attr unit  s
statistic UCACnet.owner[51] 	latency:stats
field count 143
field mean 48.038190979483
field stddev 0.53028799216686
field sum 6869.461310066
field sqrsum 330036.42549948
field min 46.383252706081
field max 50.147618293359
attr interpolationmode  none
attr title  "Latency time of file print, stats"
attr unit  s
statistic UCACnet.owner[52] 	latency:stats
field count 139
field mean 47.944155673362
field stddev 0.91733538788439
field sum 6664.2376385974
field sqrsum 319627.3743707
field min 39.32553343878
field max 49.459247213559
attr interpolationmode  none
attr title  "Latency time of file print, stats"
attr unit  s
statistic UCACnet.owner[53] 	latency:stats
field count 141
field mean 48.102402960892
field stddev 0.47257623782975
field sum 6782.4388174857
field sqrsum 326282.87101837
field min 46.988214559964
field max 49.786483659107
attr interpolationmode  none
attr title  "Latency time of file print, stats"
attr unit  s
statistic UCACnet.owner[54] 	latency:stats
field count 139
field mean 48.060497398306
field stddev 0.48492729282152
field sum 6680.4091383646
field sqrsum 321096.23733214
field min 46.528751705276
field max 49.506747725456
attr interpolationmode  none
attr title  "Latency time of file print, stats"
attr unit  s
statistic UCACnet.owner[55] 	latency:stats
field count 141
field mean 48.071009522662
field stddev 0.56653635067322
field sum 6778.0123426953
field sqrsum 325870.83075156
field min 46.477616639532
field max 50.517183442843
attr interpolationmode  none
attr title  "Latency time of file print, stats"
attr unit  s
statistic UCACnet.owner[56] 	latency:stats
field count 140
field mean 48.095730564451
field stddev 0.48137910019445
field sum 6733.4022790232
field sqrsum 323880.11168546
field min 47.017860620716
field max 49.684557326221
attr interpolationmode  none
attr title  "Latency time of file print, stats"
attr unit  s
statistic UCACnet.owner[57] 	latency:stats
field count 140
field mean 47.960372827886
field stddev 1.1036797963052
field sum 6714.4521959041
field sqrsum 322196.94781447
field min 36.307368637454
field max 49.493796527358
attr interpolationmode  none
attr title  "Latency time of file print, stats"
attr unit  s
statistic UCACnet.owner[58] 	latency:stats
field count 139
field mean 48.044604678995
field stddev 0.47508787454342
field sum 6678.2000503803
field sqrsum 320882.62915919
field min 46.747225327643
field max 49.514679289322
attr interpolationmode  none
attr title  "Latency time of file print, stats"
attr unit  s
statistic UCACnet.owner[59] 	latency:stats
field count 140
field mean 48.072282726345
field stddev 0.47793521745847
field sum 6730.1195816883
field sqrsum 323563.96198105
field min 46.685643002468
field max 49.569808714846
attr interpolationmode  none
attr title  "Latency time of file print, stats"
attr unit  s
statistic UCACnet.owner[60] 	latency:stats
field count 143
field mean 48.013794748574
field stddev 0.52479150054975
field sum 6865.972649046
field sqrsum 329700.50918952
field min 44.762026722255
field max 49.477332633613
attr interpolationmode  none
attr title  "Latency time of file print, stats"
attr unit  s
statistic UCACnet.owner[61] 	latency:stats
field count 142
field mean 47.943900158747
field stddev 0.72948081974709
field sum 6808.0338225421
field sqrsum 326478.72592489
field min 41.668797423476
field max 49.456675803054
attr interpolationmode  none
attr title  "Latency time of file print, stats"
attr unit  s
statistic UCACnet.owner[62] 	latency:stats
field count 143
field mean 48.078864949135
field stddev 0.53108133137923
field sum 6875.2776877264
field sqrsum 330595.59816404
field min 46.288177453486
field max 50.340281986264
attr interpolationmode  none
attr title  "Latency time of file print, stats"
attr unit  s
statistic UCACnet.owner[63] 	latency:stats
field count 141
field mean 48.075288720898
field stddev 0.51974308276239
field sum 6778.6157096467
field sqrsum 325921.72597137
field min 46.643142735522
field max 50.601928397541
attr interpolationmode  none
attr title  "Latency time of file print, stats"
attr unit  s
statistic UCACnet.owner[64] 	latency:stats
field count 139
field mean 48.063747201383
field stddev 0.49761331953177
field sum 6680.8608609923
field sqrsum 321141.37893453
field min 46.683948666977
field max 49.640329331959
attr interpolationmode  none
attr title  "Latency time of file print, stats"
attr unit  s
statistic UCACnet.owner[65] 	latency:stats
field count 139
field mean 47.949408982851
field stddev 0.69447105096091
field sum 6664.9678486163
field sqrsum 319647.82525646
field min 43.042345336415
field max 49.400924667211
attr interpolationmode  none
attr title  "Latency time of file print, stats"
attr unit  s
statistic UCACnet.owner[66] 	latency:stats
field count 143
field mean 48.085892513602
field stddev 0.4988875217396
field sum 6876.2826294451
field sqrsum 330687.52961647
field min 46.820550170494
field max 49.981483187658
attr interpolationmode  none
attr title  "Latency time of file print, stats"
attr unit  s
statistic UCACnet.owner[67] 	latency:stats
field count 143
field mean 47.89857536074
field stddev 0.95531900228148
field sum 6849.4962765859
field sqrsum 328210.70767141
field min 38.772049970858
field max 49.208153467753
attr interpolationmode  none
attr title  "Latency time of file print, stats"
attr unit  s
statistic UCACnet.owner[68] 	latency:stats
field count 141
field mean 47.85389306288
field stddev 2.2420393378871
field sum 6747.3989218661
field sqrsum 323593.05011454
field min 22.02914455177
field max 49.232938101886
attr interpolationmode  none
attr title  "Latency time of file print, stats"
attr unit  s
statistic UCACnet.owner[69] 	latency:stats
field count 143
field mean 48.019690819434
field stddev 0.55617508140872
field sum 6866.8157871791
field sqrsum 329786.29597676
field min 45.850970543495
field max 49.256946412638
attr interpolationmode  none
attr title  "Latency time of file print, stats"
attr unit  s
statistic UCACnet.owner[70] 	latency:stats
field count 141
field mean 48.070077511369
field stddev 0.51153850976413
field sum 6777.880929103
field sqrsum 325849.89565539
field min 46.957721666046
field max 50.363020853123
attr interpolationmode  none
attr title  "Latency time of file print, stats"
attr unit  s
statistic UCACnet.owner[71] 	latency:stats
field count 142
field mean 48.005385857974
field stddev 0.81974903466509
field sum 6816.7647918324
field sqrsum 327336.17451062
field min 39.881465349321
field max 49.208117377699
attr interpolationmode  none
attr title  "Latency time of file print, stats"
attr unit  s
statistic UCACnet.owner[72] 	latency:stats
field count 140
field mean 48.064045848748
field stddev 0.54849567665126
field sum 6728.9664188248
field sqrsum 323463.1682726
field min 46.094921686961
field max 50.328863472031
attr interpolationmode  none
attr title  "Latency time of file print, stats"
attr unit  s
statistic UCACnet.owner[73] 	latency:stats
field count 142
field mean 47.995731934505
field stddev 0.65953503544423
field sum 6815.3939346997
field sqrsum 327171.15340918
field min 43.364410923032
field max 49.528636169786
attr interpolationmode  none
attr title  "Latency time of file print, stats"
attr unit  s
statistic UCACnet.owner[74] 	latency:stats
field count 140
field mean 48.017765024068
field stddev 0.57468038077288
field sum 6722.4871033695
field sqrsum 322844.71190499
field min 46.259015887686
field max 50.375350470098
attr interpolationmode  none
attr title  "Latency time of file print, stats"
attr unit  s
statistic UCACnet.owner[75] 	latency:stats
field count 140
field mean 48.041129424088
field stddev 0.51545721321977
field sum 6725.7581193723
field sqrsum 323149.94805115
field min 46.134936225812
field max 49.186596617831
attr interpolationmode  none
attr title  "Latency time of file print, stats"
attr unit  s
statistic UCACnet.owner[76] 	latency:stats
field count 137
field mean 48.06008169706
field stddev 0.48413357798126
field sum 6584.2311924973
field sqrsum 316470.56542745
field min 46.4597532576
field max 49.672073981335
attr interpolationmode  none
attr title  "Latency time of file print, stats"
attr unit  s
statistic UCACnet.owner[77] 	latency:stats
field count 142
field mean 48.088217399578
field stddev 0.48462339862616
field sum 6828.52687074
field sqrsum 328404.79991623
field min 46.755982289825
field max 49.460411104305
attr interpolationmode  none
attr title  "Latency time of file print, stats"
attr unit  s
statistic UCACnet.owner[78] 	latency:stats
field count 138
field mean 48.043343404789
field stddev 0.5161022557959
field sum 6629.9813898609
field sqrsum 318562.96421121
field min 46.849371393316
field max 50.64144069678
attr interpolationmode  none
attr title  "Latency time of file print, stats"
attr unit  s
statistic UCACnet.owner[79] 	latency:stats
field count 139
field mean 48.037043449928
field stddev 0.52462458530044
field sum 6677.14903954
field sqrsum 320788.48040588
field min 46.635941299881
field max 49.281111345549
attr interpolationmode  none
attr title  "Latency time of file print, stats"
attr unit  s
statistic UCACnet.owner[80] 	latency:stats
field count 142
field mean 47.993078929072
field stddev 0.53855923387145
field sum 6815.0172079282
field sqrsum 327114.5552559
field min 46.360784144222
field max 49.23724533679
attr interpolationmode  none
attr title  "Latency time of file print, stats"
attr unit  s
statistic UCACnet.owner[81] 	latency:stats
field count 142
field mean 48.059837459148
field stddev 0.58138573252422
field sum 6824.496919199
field sqrsum 328031.87199833
field min 46.228472593027
field max 50.319884408813
attr interpolationmode  none
attr title  "Latency time of file print, stats"
attr unit  s
statistic UCACnet.owner[82] 	latency:stats
field count 142
field mean 48.001498214396
field stddev 0.54885668793538
field sum 6816.2127464443
field sqrsum 327230.899334
field min 46.357325518352
field max 49.638511318013
attr interpolationmode  none
attr title  "Latency time of file print, stats"
attr unit  s
statistic UCACnet.owner[83] 	latency:stats
field count 138
field mean 48.063942414935
field stddev 0.49202361913219
field sum 6632.8240532611
field sqrsum 318832.83929646
field min 46.601809778876
field max 49.459539242713
attr interpolationmode  none
attr title  "Latency time of file print, stats"
attr unit  s
statistic UCACnet.owner[84] 	latency:stats
field count 143
field mean 48.09580156747
field stddev 0.52964743465904
field sum 6877.6996241482
field sqrsum 330828.31111321
field min 46.591084699586
field max 50.65775224921
attr interpolationmode  none
attr title  "Latency time of file print, stats"
attr unit  s
statistic UCACnet.owner[85] 	latency:stats
field count 141
field mean 47.877158443233
field stddev 1.1480013860613
field sum 6750.6793404959
field sqrsum 323387.85138992
field min 35.669217986029
field max 49.025110290001
attr interpolationmode  none
attr title  "Latency time of file print, stats"
attr unit  s
statistic UCACnet.owner[86] 	latency:stats
field count 142
field mean 47.903002177716
field stddev 1.5434188540406
field sum 6802.2263092356
field sqrsum 326182.94369265
field min 30.947677339117
field max 49.495748625336
attr interpolationmode  none
attr title  "Latency time of file print, stats"
attr unit  s
statistic UCACnet.owner[87] 	latency:stats
field count 141
field mean 48.013684392988
field stddev 0.50210270241371
field sum 6769.9294994113
field sqrsum 325084.55334484
field min 46.116693399234
field max 49.425370908412
attr interpolationmode  none
attr title  "Latency time of file print, stats"
attr unit  s
statistic UCACnet.owner[88] 	latency:stats
field count 141
field mean 48.055753326003
field stddev 0.52593324070978
field sum 6775.8612189665
field sqrsum 325657.8401182
field min 46.378930314665
field max 50.503705568271
attr interpolationmode  none
attr title  "Latency time of file print, stats"
attr unit  s
statistic UCACnet.owner[89] 	latency:stats
field count 140
field mean 48.086741218744
field stddev 0.50633015651589
field sum 6732.1437706242
field sqrsum 323762.49080699
field min 46.815239804191
field max 50.514488928905
attr interpolationmode  none
attr title  "Latency time of file print, stats"
attr unit  s
statistic UCACnet.owner[90] 	latency:stats
field count 141
field mean 48.032717446727
field stddev 0.54300581724735
field sum 6772.6131599884
field sqrsum 325348.29403417
field min 46.780981663736
field max 50.546855786908
attr interpolationmode  none
attr title  "Latency time of file print, stats"
attr unit  s
statistic UCACnet.owner[91] 	latency:stats
field count 140
field mean 47.989915048353
field stddev 0.81587649348378
field sum 6718.5881067694
field sqrsum 322516.99845765
field min 40.896569583602
field max 49.574321956201
attr interpolationmode  none
attr title  "Latency time of file print, stats"
attr unit  s
statistic UCACnet.owner[92] 	latency:stats
field count 140
field mean 48.003673813298
field stddev 0.69331017004982
field sum 6720.5143338617
field sqrsum 322676.19232017
field min 42.778763182953
field max 49.439315254649
attr interpolationmode  none
attr title  "Latency time of file print, stats"
attr unit  s
statistic UCACnet.owner[93] 	latency:stats
field count 143
field mean 48.07629260246
field stddev 0.45420665714182
field sum 6874.9098421518
field sqrsum 330549.47231043
field min 46.721351446262
field max 49.499395368786
attr interpolationmode  none
attr title  "Latency time of file print, stats"
attr unit  s
statistic UCACnet.owner[94] 	latency:stats
field count 142
field mean 47.96194568361
field stddev 0.99949614218623
field sum 6810.5962870726
field sqrsum 326790.30714146
field min 38.130543359496
field max 49.0620436272
attr interpolationmode  none
attr title  "Latency time of file print, stats"
attr unit  s
statistic UCACnet.owner[95] 	latency:stats
field count 140
field mean 48.081872827669
field stddev 0.52015062689094
field sum 6731.4621958737
field sqrsum 323698.91662404
field min 46.76411802234
field max 50.46840334587
attr interpolationmode  none
attr title  "Latency time of file print, stats"
attr unit  s
statistic UCACnet.owner[96] 	latency:stats
field count 139
field mean 48.075991225652
field stddev 0.49751001625969
field sum 6682.5627803656
field sqrsum 321304.98683157
field min 46.307210600954
field max 49.528595001825
attr interpolationmode  none
attr title  "Latency time of file print, stats"
attr unit  s
statistic UCACnet.owner[97] 	latency:stats
field count 144
field mean 48.088625411602
field stddev 0.52737912430337
field sum 6924.7620592706
field sqrsum 333042.06114266
field min 46.281979220142
field max 50.348214646066
attr interpolationmode  none
attr title  "Latency time of file print, stats"
attr unit  s
statistic UCACnet.owner[98] 	latency:stats
field count 141
field mean 48.097832261559
field stddev 0.43805990658674
field sum 6781.7943488798
field sqrsum 326216.47253226
field min 47.029299320363
field max 49.018891001303
attr interpolationmode  none
attr title  "Latency time of file print, stats"
attr unit  s
statistic UCACnet.owner[99] 	latency:stats
field count 138
field mean 48.021977728578
field stddev 0.49351095486787
field sum 6627.0329265437
field sqrsum 318276.59437461
field min 46.399570066021
field max 49.666143529293
attr interpolationmode  none
attr title  "Latency time of file print, stats"
attr unit  s
statistic UCACnet.owner[100] 	latency:stats
field count 138
field mean 48.129824690329
field stddev 0.49190740057571
field sum 6641.9158072653
field sqrsum 319707.39369763
field min 46.893927897456
field max 50.042552308504
attr interpolationmode  none
attr title  "Latency time of file print, stats"
attr unit  s
statistic UCACnet.owner[101] 	latency:stats
field count 141
field mean 47.900441207212
field stddev 1.8599468819439
field sum 6753.9622102169
field sqrsum 324002.08610274
field min 26.80299867965
field max 49.497993683383
attr interpolationmode  none
attr title  "Latency time of file print, stats"
attr unit  s
statistic UCACnet.owner[102] 	latency:stats
field count 139
field mean 48.08017998416
field stddev 0.49518015447684
field sum 6683.1450177982
field sqrsum 321360.65338316
field min 46.600503116384
field max 49.586149753509
attr interpolationmode  none
attr title  "Latency time of file print, stats"
attr unit  s
statistic UCACnet.owner[103] 	latency:stats
field count 143
field mean 48.023651974856
field stddev 0.58411123843473
field sum 6867.3822324043
field sqrsum 329845.22271061
field min 46.238356070419
field max 50.352120192115
attr interpolationmode  none
attr title  "Latency time of file print, stats"
attr unit  s
statistic UCACnet.owner[104] 	latency:stats
field count 140
field mean 47.976081080287
field stddev 0.52674857204412
field sum 6716.6513512402
field sqrsum 322277.17731921
field min 45.00386178202
field max 49.142583851403
attr interpolationmode  none
attr title  "Latency time of file print, stats"
attr unit  s
statistic UCACnet.owner[105] 	latency:stats
field count 141
field mean 48.040333866631
field stddev 0.50180626946745
field sum 6773.687075195
field sqrsum 325445.44193495
field min 46.649572385002
field max 49.12127202861
attr interpolationmode  none
attr title  "Latency time of file print, stats"
attr unit  s
statistic UCACnet.owner[106] 	latency:stats
field count 139
field mean 47.968099708775
field stddev 1.1375674664807
field sum 6667.5658595197
field sqrsum 320009.04420849
field min 35.91847916222
field max 49.641553942669
attr interpolationmode  none
attr title  "Latency time of file print, stats"
attr unit  s
statistic UCACnet.owner[107] 	latency:stats
field count 139
field mean 48.088337502798
field stddev 0.51825337744633
field sum 6684.2789128889
field sqrsum 321472.92527156
field min 46.597972798569
field max 50.502566110258
attr interpolationmode  none
attr title  "Latency time of file print, stats"
attr unit  s
statistic UCACnet.owner[108] 	latency:stats
field count 140
field mean 48.030061524793
field stddev 0.68625891557129
field sum 6724.2086134711
field sqrsum 323029.61564115
field min 42.739815056025
field max 49.233438031627
attr interpolationmode  none
attr title  "Latency time of file print, stats"
attr unit  s
statistic UCACnet.owner[109] 	latency:stats
field count 142
field mean 48.114831170879
field stddev 0.51544886626147
field sum 6832.3060262648
field sqrsum 328772.71290376
field min 46.600854685695
field max 50.374637789579
attr interpolationmode  none
attr title  "Latency time of file print, stats"
attr unit  s
statistic UCACnet.owner[110] 	latency:stats
field count 140
field mean 47.983736721904
field stddev 0.84633226185492
field sum 6717.7231410666
field sqrsum 322441.02125493
field min 40.321694789524
field max 49.311833116935
attr interpolationmode  none
attr title  "Latency time of file print, stats"
attr unit  s
statistic UCACnet.owner[111] 	latency:stats
field count 142
field mean 48.003909846954
field stddev 0.51695638360252
field sum 6816.5551982674
field sqrsum 327258.98259467
field min 45.859826741348
field max 49.660418078142
attr interpolationmode  none
attr title  "Latency time of file print, stats"
attr unit  s
statistic UCACnet.owner[112] 	latency:stats
field count 138
field mean 48.080117479833
field stddev 0.52788469680073
field sum 6635.056212217
field sqrsum 319052.45889737
field min 46.712132813432
field max 50.501403092839
attr interpolationmode  none
attr title  "Latency time of file print, stats"
attr unit  s
statistic UCACnet.owner[113] 	latency:stats
field count 143
field mean 48.085317339203
field stddev 0.485639203115
field sum 6876.2003795061
field sqrsum 330677.76738835
field min 46.911234493626
field max 50.131671707523
attr interpolationmode  none
attr title  "Latency time of file print, stats"
attr unit  s
statistic UCACnet.owner[114] 	latency:stats
field count 140
field mean 48.0921415012
field stddev 0.55345885747703
field sum 6732.899810168
field sqrsum 323842.14840627
field min 44.378024911108
field max 49.252944714022
attr interpolationmode  none
attr title  "Latency time of file print, stats"
attr unit  s
statistic UCACnet.owner[115] 	latency:stats
field count 139
field mean 48.07495369812
field stddev 0.46291435414245
field sum 6682.4185640387
field sqrsum 321286.53503612
field min 46.948073470688
field max 49.435375193867
attr interpolationmode  none
attr title  "Latency time of file print, stats"
attr unit  s
statistic UCACnet.owner[116] 	latency:stats
field count 144
field mean 48.059921090133
field stddev 0.51976835758957
field sum 6920.6286369792
field sqrsum 332643.49894515
field min 46.512974012035
field max 49.567286565744
attr interpolationmode  none
attr title  "Latency time of file print, stats"
attr unit  s
statistic UCACnet.owner[117] 	latency:stats
field count 142
field mean 48.031591275315
field stddev 0.47386665895623
field sum 6820.4859610948
field sqrsum 327630.45547741
field min 46.71469016899
field max 49.197772904436
attr interpolationmode  none
attr title  "Latency time of file print, stats"
attr unit  s
statistic UCACnet.owner[118] 	latency:stats
field count 142
field mean 47.953893605738
field stddev 0.59936412460507
field sum 6809.4528920148
field sqrsum 326590.43196386
field min 44.190060158991
field max 48.891264928826
attr interpolationmode  none
attr title  "Latency time of file print, stats"
attr unit  s
statistic UCACnet.owner[119] 	latency:stats
field count 143
field mean 48.043014949704
field stddev 0.51214944824456
field sum 6870.1511378076
field sqrsum 330100.02000256
field min 46.703342989436
field max 50.386189503074
attr interpolationmode  none
attr title  "Latency time of file print, stats"
attr unit  s
statistic UCACnet.owner[120] 	latency:stats
field count 143
field mean 47.967036609645
field stddev 0.86866377983395
field sum 6859.2862351793
field sqrsum 329126.78385914
field min 40.253555682319
field max 49.327899962203
attr interpolationmode  none
attr title  "Latency time of file print, stats"
attr unit  s
statistic UCACnet.owner[121] 	latency:stats
field count 141
field mean 48.065815494983
field stddev 0.43772023175787
field sum 6777.2799847926
field sqrsum 325782.31316706
field min 46.787817944556
field max 49.444096242144
attr interpolationmode  none
attr title  "Latency time of file print, stats"
attr unit  s
statistic UCACnet.owner[122] 	latency:stats
field count 146
field mean 47.924508486777
field stddev 1.0881271583301
field sum 6996.9782390694
field sqrsum 335498.42600341
field min 36.653276145856
field max 49.439047870974
attr interpolationmode  none
attr title  "Latency time of file print, stats"
attr unit  s
statistic UCACnet.owner[123] 	latency:stats
field count 140
field mean 48.085823271162
field stddev 0.52499822388015
field sum 6732.0152579627
field sqrsum 323752.80756893
field min 46.604693711529
field max 50.549147228447
attr interpolationmode  none
attr title  "Latency time of file print, stats"
attr unit  s
statistic UCACnet.owner[124] 	latency:stats
field count 138
field mean 48.077443558292
field stddev 0.53306677456356
field sum 6634.6872110443
field sqrsum 319017.72986141
field min 46.62872308532
field max 50.524108272285
attr interpolationmode  none
attr title  "Latency time of file print, stats"
attr unit  s
statistic UCACnet.owner[125] 	latency:stats
field count 141
field mean 48.00566179061
field stddev 0.50750139083348
field sum 6768.798312476
field sqrsum 324976.70059021
field min 46.329744939041
field max 49.28130028697
attr interpolationmode  none
attr title  "Latency time of file print, stats"
attr unit  s
statistic UCACnet.owner[126] 	latency:stats
field count 143
field mean 47.97348956957
field stddev 0.95865024384316
field sum 6860.2090084485
field sqrsum 329238.66477305
field min 38.977707551259
field max 49.635053354022
attr interpolationmode  none
attr title  "Latency time of file print, stats"
attr unit  s
statistic UCACnet.owner[127] 	latency:stats
field count 142
field mean 47.998433001573
field stddev 0.53302351196021
field sum 6815.7774862234
field sqrsum 327186.69910919
field min 46.47370199973
field max 50.344476911055
attr interpolationmode  none
attr title  "Latency time of file print, stats"
attr unit  s
statistic UCACnet.owner[128] 	latency:stats
field count 142
field mean 48.010754080816
field stddev 0.68480455120077
field sum 6817.5270794759
field sqrsum 327380.73902756
field min 42.166024278708
field max 49.114893532273
attr interpolationmode  none
attr title  "Latency time of file print, stats"
attr unit  s
statistic UCACnet.owner[129] 	latency:stats
field count 144
field mean 48.008118566817
field stddev 0.48289843026697
field sum 6913.1690736216
field sqrsum 331921.58685671
field min 46.486187204621
field max 49.081738932567
attr interpolationmode  none
attr title  "Latency time of file print, stats"
attr unit  s
statistic UCACnet.owner[130] 	latency:stats
field count 139
field mean 48.068136841537
field stddev 0.47060501546468
field sum 6681.4710209736
field sqrsum 321196.42607205
field min 46.769817713894
field max 49.441712444928
attr interpolationmode  none
attr title  "Latency time of file print, stats"
attr unit  s
statistic UCACnet.owner[131] 	latency:stats
field count 142
field mean 48.074852431037
field stddev 0.5476794641157
field sum 6826.6290452073
field sqrsum 328231.47729393
field min 46.465384158769
field max 50.520136434998
attr interpolationmode  none
attr title  "Latency time of file print, stats"
attr unit  s
statistic UCACnet.owner[132] 	latency:stats
field count 140
field mean 48.086380915176
field stddev 0.49879489296138
field sum 6732.0933281247
field sqrsum 323756.58682471
field min 46.554784653735
field max 50.003513666615
attr interpolationmode  none
attr title  "Latency time of file print, stats"
attr unit  s
statistic UCACnet.owner[133] 	latency:stats
field count 144
field mean 47.899964499128
field stddev 2.4296378477892
field sum 6897.5948878745
field sqrsum 331238.69928877
field min 19.636184459472
field max 49.273813479813
attr interpolationmode  none
attr title  "Latency time of file print, stats"
attr unit  s
statistic UCACnet.owner[134] 	latency:stats
field count 139
field mean 47.901343791486
field stddev 1.200730868658
field sum 6658.2867870166
field sqrsum 319139.8465846
field min 35.481381428531
field max 49.147473296
attr interpolationmode  none
attr title  "Latency time of file print, stats"
attr unit  s
statistic UCACnet.owner[135] 	latency:stats
field count 141
field mean 48.032220639131
field stddev 0.48665263269746
field sum 6772.5431101175
field sqrsum 325333.44126308
field min 46.671933766406
field max 50.365810902217
attr interpolationmode  none
attr title  "Latency time of file print, stats"
attr unit  s
statistic UCACnet.owner[136] 	latency:stats
field count 139
field mean 48.099499968654
field stddev 0.50817671206279
field sum 6685.8304956429
field sqrsum 321620.74132836
field min 46.953760375668
field max 49.784641050937
attr interpolationmode  none
attr title  "Latency time of file print, stats"
attr unit  s
statistic UCACnet.owner[137] 	latency:stats
field count 142
field mean 48.096719879491
field stddev 0.52274652661439
field sum 6829.7342228877
field sqrsum 328526.34398389
field min 46.476939073096
field max 50.568686586241
attr interpolationmode  none
attr title  "Latency time of file print, stats"
attr unit  s
statistic UCACnet.owner[138] 	latency:stats
field count 141
field mean 47.925301644231
field stddev 1.2189245251268
field sum 6757.4675318365
field sqrsum 324061.67859407
field min 35.412482490691
field max 49.73904130059
attr interpolationmode  none
attr title  "Latency time of file print, stats"
attr unit  s
statistic UCACnet.owner[139] 	latency:stats
field count 141
field mean 48.048963940679
field stddev 0.52854400451499
field sum 6774.9039156357
field sqrsum 325566.224171
field min 45.966946520337
field max 49.47120385137
attr interpolationmode  none
attr title  "Latency time of file print, stats"
attr unit  s
statistic UCACnet.owner[140] 	latency:stats
field count 134
field mean 48.048355920292
field stddev 0.50403337070156
field sum 6438.4796933191
field sqrsum 309392.15249212
field min 45.728515647936
field max 49.739361756265
attr interpolationmode  none
attr title  "Latency time of file print, stats"
attr unit  s
statistic UCACnet.owner[141] 	latency:stats
field count 141
field mean 48.033995011901
field stddev 0.46674018866273
field sum 6772.7932966781
field sqrsum 325354.81792579
field min 46.919943058371
field max 49.591125123413
attr interpolationmode  none
attr title  "Latency time of file print, stats"
attr unit  s
statistic UCACnet.owner[142] 	latency:stats
field count 140
field mean 48.019638999029
field stddev 0.51144251675501
field sum 6722.749459864
field sqrsum 322860.36085285
field min 46.410938323353
field max 49.278561429686
attr interpolationmode  none
attr title  "Latency time of file print, stats"
attr unit  s
statistic UCACnet.owner[143] 	latency:stats
field count 139
field mean 48.142334976909
field stddev 0.45489028594855
field sum 6691.7845617904
field sqrsum 322186.68964079
field min 47.094878859354
field max 49.502994310448
attr interpolationmode  none
attr title  "Latency time of file print, stats"
attr unit  s
statistic UCACnet.owner[144] 	latency:stats
field count 141
field mean 47.999985572182
field stddev 0.53144567129093
field sum 6767.9979656777
field sqrsum 324903.3455353
field min 45.701557398741
field max 49.662703249699
attr interpolationmode  none
attr title  "Latency time of file print, stats"
attr unit  s
statistic UCACnet.owner[145] 	latency:stats
field count 137
field mean 47.876105083899
field stddev 1.6033231112698
field sum 6559.0263964941
field sqrsum 314370.2447265
field min 30.167560979543
field max 49.52197181451
attr interpolationmode  none
attr title  "Latency time of file print, stats"
attr unit  s
statistic UCACnet.owner[146] 	latency:stats
field count 140
field mean 48.058384356309
field stddev 0.51472512811164
field sum 6728.1738098833
field sqrsum 323381.98990351
field min 46.423448927749
field max 50.298045274767
attr interpolationmode  none
attr title  "Latency time of file print, stats"
attr unit  s
statistic UCACnet.owner[147] 	latency:stats
field count 140
field mean 48.048653776216
field stddev 0.50594010593555
field sum 6726.8115286702
field sqrsum 323249.81873825
field min 46.5009098496
field max 49.634538676082
attr interpolationmode  none
attr title  "Latency time of file print, stats"
attr unit  s
statistic UCACnet.owner[148] 	latency:stats
field count 139
field mean 48.047343450482
field stddev 0.50451444997941
field sum 6678.580739617
field sqrsum 320923.18836472
field min 46.91711355111
field max 50.566377522257
attr interpolationmode  none
attr title  "Latency time of file print, stats"
attr unit  s
statistic UCACnet.owner[149] 	latency:stats
field count 140
field mean 47.855495442895
field stddev 2.2365726503602
field sum 6699.7693620052
field sqrsum 321316.09592551
field min 22.260928962319
field max 49.661040965212
attr interpolationmode  none
attr title  "Latency time of file print, stats"
attr unit  s
statistic UCACnet.owner[150] 	latency:stats
field count 145
field mean 47.907986352158
field stddev 1.8218342177605
field sum 6946.658021063
field sqrsum 333278.34517425
field min 27.103067253198
field max 49.497819451452
attr interpolationmode  none
attr title  "Latency time of file print, stats"
attr unit  s
statistic UCACnet.owner[151] 	latency:stats
field count 139
field mean 48.03993432695
field stddev 0.48852993940666
field sum 6677.550871446
field sqrsum 320822.04061637
field min 46.491654525742
field max 49.071394263431
attr interpolationmode  none
attr title  "Latency time of file print, stats"
attr unit  s
statistic UCACnet.owner[152] 	latency:stats
field count 142
field mean 48.016939728094
field stddev 0.53230411118394
field sum 6818.4054413894
field sqrsum 327438.91514192
field min 45.340727834143
field max 49.082555171621
attr interpolationmode  none
attr title  "Latency time of file print, stats"
attr unit  s
statistic UCACnet.owner[153] 	latency:stats
field count 141
field mean 48.035208351046
field stddev 0.53259359720502
field sum 6772.9643774975
field sqrsum 325380.46685888
field min 45.471129015327
field max 49.663458860453
attr interpolationmode  none
attr title  "Latency time of file print, stats"
attr unit  s
statistic UCACnet.owner[154] 	latency:stats
field count 141
field mean 47.879442629733
field stddev 1.0659107690051
field sum 6751.0014107924
field sqrsum 323393.24794873
field min 37.478262590668
field max 49.595409341661
attr interpolationmode  none
attr title  "Latency time of file print, stats"
attr unit  s
statistic UCACnet.owner[155] 	latency:stats
field count 144
field mean 48.07656522092
field stddev 0.52840270270057
field sum 6923.0253918125
field sqrsum 332875.20872208
field min 46.533731104295
field max 49.508404061481
attr interpolationmode  none
attr title  "Latency time of file print, stats"
attr unit  s
statistic UCACnet.owner[156] 	latency:stats
field count 139
field mean 48.003849901501
field stddev 0.55022210533128
field sum 6672.5351363087
field sqrsum 320349.15386825
field min 45.695069349967
field max 49.605711092969
attr interpolationmode  none
attr title  "Latency time of file print, stats"
attr unit  s
statistic UCACnet.owner[157] 	latency:stats
field count 139
field mean 48.086901959559
field stddev 0.49397339385427
field sum 6684.0793723787
field sqrsum 321450.34280999
field min 46.255353995215
field max 49.667294161598
attr interpolationmode  none
attr title  "Latency time of file print, stats"
attr unit  s
statistic UCACnet.owner[158] 	latency:stats
field count 142
field mean 47.9779031308
field stddev 1.0632477142656
field sum 6812.8622445736
field sqrsum 327026.2447076
field min 37.332943879527
field max 49.483451367655
attr interpolationmode  none
attr title  "Latency time of file print, stats"
attr unit  s
statistic UCACnet.owner[159] 	latency:stats
field count 144
field mean 48.087679566499
field stddev 0.56022278947929
field sum 6924.6258575759
field sqrsum 333034.06984607
field min 46.64992423424
field max 50.640094978294
attr interpolationmode  none
attr title  "Latency time of file print, stats"
attr unit  s
statistic UCACnet.owner[160] 	latency:stats
field count 141
field mean 48.05224740021
field stddev 0.52790912954934
field sum 6775.3668834296
field sqrsum 325610.62203662
field min 45.775686037374
field max 49.225425205068
attr interpolationmode  none
attr title  "Latency time of file print, stats"
attr unit  s
statistic UCACnet.owner[161] 	latency:stats
field count 140
field mean 48.048331696014
field stddev 0.51100737438469
field sum 6726.7664374419
field sqrsum 323246.20189442
field min 46.280507084712
field max 49.485846869987
attr interpolationmode  none
attr title  "Latency time of file print, stats"
attr unit  s
statistic UCACnet.owner[162] 	latency:stats
field count 141
field mean 47.997855506651
field stddev 0.57047545986873
field sum 6767.6976264377
field sqrsum 324880.5347015
field min 46.233107070482
field max 49.609915378985
attr interpolationmode  none
attr title  "Latency time of file print, stats"
attr unit  s
statistic UCACnet.owner[163] 	latency:stats
field count 138
field mean 48.060018031115
field stddev 0.43721077379939
field sum 6632.2824882938
field sqrsum 318773.80397157
field min 46.956861909833
field max 49.115616067006
attr interpolationmode  none
attr title  "Latency time of file print, stats"
attr unit  s
statistic UCACnet.owner[164] 	latency:stats
field count 140
field mean 47.88836416085
field stddev 1.49085672941
field sum 6704.370982519
field sqrsum 321370.30795678
field min 31.591856228959
field max 49.168129518249
attr interpolationmode  none
attr title  "Latency time of file print, stats"
attr unit  s
statistic UCACnet.owner[165] 	latency:stats
field count 143
field mean 48.029104999978
field stddev 0.66323464942886
field sum 6868.1620149969
field sqrsum 329934.13756358
field min 43.070875762963
field max 49.082822449412
attr interpolationmode  none
attr title  "Latency time of file print, stats"
attr unit  s
statistic UCACnet.owner[166] 	latency:stats
field count 141
field mean 48.095865018193
field stddev 0.49558594180022
field sum 6781.5169675652
field sqrsum 326197.3094502
field min 47.078509295759
field max 50.626934973129
attr interpolationmode  none
attr title  "Latency time of file print, stats"
attr unit  s
statistic UCACnet.owner[167] 	latency:stats
field count 144
field mean 48.091204283428
field stddev 0.52389243488326
field sum 6925.1334168136
field sqrsum 333077.25408749
field min 46.702895762953
field max 49.944395083119
attr interpolationmode  none
attr title  "Latency time of file print, stats"
attr unit  s
statistic UCACnet.owner[168] 	latency:stats
field count 139
field mean 48.033389215424
field stddev 0.52856909453668
field sum 6676.6411009439
field sqrsum 320740.25582304
field min 46.235400018315
field max 49.983854924078
attr interpolationmode  none
attr title  "Latency time of file print, stats"
attr unit  s
statistic UCACnet.owner[169] 	latency:stats
field count 144
field mean 48.096723442483
field stddev 0.48219249167884
field sum 6925.9281757175
field sqrsum 333147.70092264
field min 46.399621175873
field max 49.494425018709
attr interpolationmode  none
attr title  "Latency time of file print, stats"
attr unit  s
statistic UCACnet.owner[170] 	latency:stats
field count 142
field mean 48.012421113972
field stddev 0.58229026153245
field sum 6817.7637981841
field sqrsum 327385.15426877
field min 44.814681842802
field max 49.20479055987
attr interpolationmode  none
attr title  "Latency time of file print, stats"
attr unit  s
statistic UCACnet.owner[171] 	latency:stats
field count 142
field mean 48.035838616824
field stddev 0.53186872063158
field sum 6821.089083589
field sqrsum 327696.62110163
field min 46.665939922315
field max 49.677805675657
attr interpolationmode  none
attr title  "Latency time of file print, stats"
attr unit  s
statistic UCACnet.owner[172] 	latency:stats
field count 144
field mean 48.090147782617
field stddev 0.49912065489959
field sum 6924.9812806968
field sqrsum 333058.99754479
field min 46.828226769995
field max 49.66924073931
attr interpolationmode  none
attr title  "Latency time of file print, stats"
attr unit  s
statistic UCACnet.owner[173] 	latency:stats
field count 138
field mean 48.052595137999
field stddev 0.46292256804657
field sum 6631.2581290438
field sqrsum 318678.52086116
field min 46.874196746193
field max 49.544751423796
attr interpolationmode  none
attr title  "Latency time of file print, stats"
attr unit  s
statistic UCACnet.owner[174] 	latency:stats
field count 141
field mean 47.937920782646
field stddev 1.1884909186919
field sum 6759.2468303531
field sqrsum 324221.99059675
field min 35.210327159598
field max 49.22069961338
attr interpolationmode  none
attr title  "Latency time of file print, stats"
attr unit  s
statistic UCACnet.owner[175] 	latency:stats
field count 140
field mean 48.072506089328
field stddev 0.45364618968973
field sum 6730.150852506
field sqrsum 323563.82332549
field min 46.611886163557
field max 49.236112460982
attr interpolationmode  none
attr title  "Latency time of file print, stats"
attr unit  s
statistic UCACnet.owner[176] 	latency:stats
field count 141
field mean 48.089478250434
field stddev 0.50194323346494
field sum 6780.6164333111
field sqrsum 326111.57907559
field min 46.963366939968
field max 50.135873833038
attr interpolationmode  none
attr title  "Latency time of file print, stats"
attr unit  s
statistic UCACnet.owner[177] 	latency:stats
field count 143
field mean 47.923415497102
field stddev 1.3036532522767
field sum 6853.0484160857
field sqrsum 328662.81734174
field min 33.885125420385
field max 49.558658825755
attr interpolationmode  none
attr title  "Latency time of file print, stats"
attr unit  s
statistic UCACnet.owner[178] 	latency:stats
field count 141
field mean 48.055961173425
field stddev 0.45433673041846
field sum 6775.890525453
field sqrsum 325650.8310676
field min 46.529490723958
field max 49.119977968228
attr interpolationmode  none
attr title  "Latency time of file print, stats"
attr unit  s
statistic UCACnet.owner[179] 	latency:stats
field count 141
field mean 48.019143329802
field stddev 0.56386058102547
field sum 6770.6992095022
field sqrsum 325167.68720974
field min 45.19342608849
field max 49.153232406707
attr interpolationmode  none
attr title  "Latency time of file print, stats"
attr unit  s
statistic UCACnet.owner[180] 	latency:stats
field count 142
field mean 48.025382049295
field stddev 0.47768098172633
field sum 6819.6042509999
field sqrsum 327546.27283523
field min 46.397228102795
field max 49.292159602809
attr interpolationmode  none
attr title  "Latency time of file print, stats"
attr unit  s
statistic UCACnet.owner[181] 	latency:stats
field count 139
field mean 47.818586731402
field stddev 2.6356310059284
field sum 6646.7835556648
field sqrsum 318798.41995173
field min 17.51882273714
field max 49.442447822099
attr interpolationmode  none
attr title  "Latency time of file print, stats"
attr unit  s
statistic UCACnet.owner[182] 	latency:stats
field count 138
field mean 48.111898495572
field stddev 0.57224397759378
field sum 6639.441992389
field sqrsum 319481.02165933
field min 46.251672551041
field max 50.510371142872
attr interpolationmode  none
attr title  "Latency time of file print, stats"
attr unit  s
statistic UCACnet.owner[183] 	latency:stats
field count 137
field mean 48.041192172999
field stddev 0.54262546270725
field sum 6581.6433277008
field sqrsum 316230.03608563
field min 46.451717636241
field max 49.739553733762
attr interpolationmode  none
attr title  "Latency time of file print, stats"
attr unit  s
statistic UCACnet.owner[184] 	latency:stats
field count 139
field mean 47.896079090145
field stddev 0.96751754405424
field sum 6657.5549935301
field sqrsum 318999.96096444
field min 38.345523108173
field max 49.09561103294
attr interpolationmode  none
attr title  "Latency time of file print, stats"
attr unit  s
statistic UCACnet.owner[185] 	latency:stats
field count 141
field mean 48.057453422107
field stddev 0.51014057126989
field sum 6776.1009325171
field sqrsum 325678.58902428
field min 46.454261626275
field max 50.489023701986
attr interpolationmode  none
attr title  "Latency time of file print, stats"
attr unit  s
statistic UCACnet.owner[186] 	latency:stats
field count 142
field mean 48.056339767719
field stddev 0.52634163911861
field sum 6824.0002470161
field sqrsum 327975.53645408
field min 46.642827785066
field max 50.661492142691
attr interpolationmode  none
attr title  "Latency time of file print, stats"
attr unit  s
statistic UCACnet.owner[187] 	latency:stats
field count 140
field mean 48.104930106887
field stddev 0.5005705733907
field sum 6734.6902149642
field sqrsum 324006.63143734
field min 46.520570324787
field max 49.70400552891
attr interpolationmode  none
attr title  "Latency time of file print, stats"
attr unit  s
statistic UCACnet.owner[188] 	latency:stats
field count 142
field mean 47.995799948734
field stddev 0.50597925098668
field sum 6815.4035927203
field sqrsum 327146.84552143
field min 45.532288573519
field max 49.129674970416
attr interpolationmode  none
attr title  "Latency time of file print, stats"
attr unit  s
statistic UCACnet.owner[189] 	latency:stats
field count 140
field mean 48.008868969803
field stddev 0.60900505361279
field sum 6721.2416557724
field sqrsum 322730.76328095
field min 44.787653006157
field max 49.646443255908
attr interpolationmode  none
attr title  "Latency time of file print, stats"
attr unit  s
statistic UCACnet.owner[190] 	latency:stats
field count 139
field mean 47.987479859177
field stddev 0.73752673133402
field sum 6670.2597004256
field sqrsum 320164.01753342
field min 41.509325858108
field max 49.218190216484
attr interpolationmode  none
attr title  "Latency time of file print, stats"
attr unit  s
statistic UCACnet.owner[191] 	latency:stats
field count 141
field mean 47.994044422397
field stddev 0.4720319443891
field sum 6767.160263558
field sqrsum 324814.5842846
field min 46.494896582146
field max 49.16675269089
attr interpolationmode  none
attr title  "Latency time of file print, stats"
attr unit  s
statistic UCACnet.owner[192] 	latency:stats
field count 142
field mean 48.032120679474
field stddev 0.53809153636215
field sum 6820.5611364853
field sqrsum 327646.8411021
field min 46.292603164984
field max 50.243539824188
attr interpolationmode  none
attr title  "Latency time of file print, stats"
attr unit  s
statistic UCACnet.owner[193] 	latency:stats
field count 141
field mean 48.094050618935
field stddev 0.52665516412601
field sum 6781.2611372698
field sqrsum 326177.14758873
field min 46.761960850019
field max 49.882856245766
attr interpolationmode  none
attr title  "Latency time of file print, stats"
attr unit  s
statistic UCACnet.owner[194] 	latency:stats
field count 142
field mean 47.836418328195
field stddev 2.2047809134044
field sum 6792.7714026037
field sqrsum 325627.26372428
field min 22.331705655824
field max 49.08115635997
attr interpolationmode  none
attr title  "Latency time of file print, stats"
attr unit  s
statistic UCACnet.owner[195] 	latency:stats
field count 139
field mean 47.983681535992
field stddev 0.80262811943291
field sum 6669.7317335029
field sqrsum 320127.18467284
field min 40.562307723933
field max 49.205316816883
attr interpolationmode  none
attr title  "Latency time of file print, stats"
attr unit  s
statistic UCACnet.owner[196] 	latency:stats
field count 140
field mean 48.023726956803
field stddev 0.5122704582653
field sum 6723.3217739524
field sqrsum 322915.44563714
field min 46.666763162249
field max 49.89141951965
attr interpolationmode  none
attr title  "Latency time of file print, stats"
attr unit  s
statistic UCACnet.owner[197] 	latency:stats
field count 142
field mean 48.055233625532
field stddev 0.50830800310133
field sum 6823.8431748256
field sqrsum 327957.80915091
field min 46.628010037365
field max 49.228901214681
attr interpolationmode  none
attr title  "Latency time of file print, stats"
attr unit  s
statistic UCACnet.owner[198] 	latency:stats
field count 142
field mean 47.847571039452
field stddev 2.777374073419
field sum 6794.3550876022
field sqrsum 326181.03447217
field min 15.535764838857
field max 49.723971702507
attr interpolationmode  none
attr title  "Latency time of file print, stats"
attr unit  s
statistic UCACnet.owner[199] 	latency:stats
field count 139
field mean 47.953836384408
field stddev 0.91484956091063
field sum 6665.5832574326
field sqrsum 319755.78799481
field min 39.495415181475
field max 49.250679457273
attr interpolationmode  none
attr title  "Latency time of file print, stats"
attr unit  s
statistic UCACnet.owner[200] 	latency:stats
field count 138
field mean 48.069992592886
field stddev 0.53117976074277
field sum 6633.6589778182
field sqrsum 318918.59274299
field min 46.502667024006
field max 50.590488824056
attr interpolationmode  none
attr title  "Latency time of file print, stats"
attr unit  s
statistic UCACnet.owner[201] 	latency:stats
field count 143
field mean 48.029893333947
field stddev 0.53077014792379
field sum 6868.2747467544
field sqrsum 329922.50728174
field min 46.367395021807
field max 50.031999922296
attr interpolationmode  none
attr title  "Latency time of file print, stats"
attr unit  s
statistic UCACnet.owner[202] 	latency:stats
field count 139
field mean 48.074487874754
field stddev 0.5279385750877
field sum 6682.3538145908
field sqrsum 321289.20067555
field min 44.967613635234
field max 48.994710435375
attr interpolationmode  none
attr title  "Latency time of file print, stats"
attr unit  s
statistic UCACnet.owner[203] 	latency:stats
field count 139
field mean 48.081152186253
field stddev 0.54900950839518
field sum 6683.2801538891
field sqrsum 321381.40496127
field min 46.431676662776
field max 50.719743709415
attr interpolationmode  none
attr title  "Latency time of file print, stats"
attr unit  s
statistic UCACnet.owner[204] 	latency:stats
field count 137
field mean 48.111725169476
field stddev 0.49754797820066
field sum 6591.3063482182
field sqrsum 317152.78687602
field min 47.064356551018
field max 50.621251506278
attr interpolationmode  none
attr title  "Latency time of file print, stats"
attr unit  s
statistic UCACnet.owner[205] 	latency:stats
field count 143
field mean 48.00028739252
field stddev 0.55573564408577
field sum 6864.0410971304
field sqrsum 329519.80091539
field min 45.483362861428
field max 49.143440914793
attr interpolationmode  none
attr title  "Latency time of file print, stats"
attr unit  s
statistic UCACnet.owner[206] 	latency:stats
field count 137
field mean 48.049768470486
field stddev 0.48477069950941
field sum 6582.8182804566
field sqrsum 316334.85461705
field min 46.707398466633
field max 49.204317070384
attr interpolationmode  none
attr title  "Latency time of file print, stats"
attr unit  s
statistic UCACnet.owner[207] 	latency:stats
field count 142
field mean 48.022356642891
field stddev 0.51411036388926
field sum 6819.1746432905
field sqrsum 327510.104365
field min 46.360561462969
field max 49.252269546067
attr interpolationmode  none
attr title  "Latency time of file print, stats"
attr unit  s
statistic UCACnet.owner[208] 	latency:stats
field count 144
field mean 48.038433519742
field stddev 0.60594128606992
field sum 6917.5344268429
field sqrsum 332360.02225685
field min 44.3106205187
field max 49.515537603268
attr interpolationmode  none
attr title  "Latency time of file print, stats"
attr unit  s
statistic UCACnet.owner[209] 	latency:stats
field count 139
field mean 48.02598113825
field stddev 0.56313904413002
field sum 6675.6113782168
field sqrsum 320646.54946699
field min 46.247867509338
field max 50.520586150837
attr interpolationmode  none
attr title  "Latency time of file print, stats"
attr unit  s
statistic UCACnet.owner[210] 	latency:stats
field count 139
field mean 48.035463414124
field stddev 0.55672837921158
field sum 6676.9294145633
field sqrsum 320772.17122732
field min 46.163747558279
field max 50.134900565491
attr interpolationmode  none
attr title  "Latency time of file print, stats"
attr unit  s
statistic UCACnet.owner[211] 	latency:stats
field count 141
field mean 48.023214464978
field stddev 0.47194286464261
field sum 6771.2732395618
field sqrsum 325209.48919389
field min 46.381069876793
field max 48.992767458014
attr interpolationmode  none
attr title  "Latency time of file print, stats"
attr unit  s
statistic UCACnet.owner[212] 	latency:stats
field count 139
field mean 48.054008013661
field stddev 0.48725905682869
field sum 6679.5071138988
field sqrsum 321009.85253021
field min 46.892418684233
field max 50.242921535922
attr interpolationmode  none
attr title  "Latency time of file print, stats"
attr unit  s
statistic UCACnet.owner[213] 	latency:stats
field count 141
field mean 48.078759072074
field stddev 0.53746880227191
field sum 6779.1050291625
field sqrsum 325971.39960127
field min 46.647308826638
field max 49.542989955445
attr interpolationmode  none
attr title  "Latency time of file print, stats"
attr unit  s
statistic UCACnet.owner[214] 	latency:stats
field count 144
field mean 48.095981679199
field stddev 0.52897234810577
field sum 6925.8213618047
field sqrsum 333144.19041031
field min 46.220435613559
field max 50.076622128136
attr interpolationmode  none
attr title  "Latency time of file print, stats"
attr unit  s
statistic UCACnet.owner[215] 	latency:stats
field count 141
field mean 48.059318638044
field stddev 0.53134268390811
field sum 6776.3639279642
field sqrsum 325706.95872806
field min 46.908376525024
field max 50.390242943592
attr interpolationmode  none
attr title  "Latency time of file print, stats"
attr unit  s
statistic UCACnet.owner[216] 	latency:stats
field count 139
field mean 47.979906096498
field stddev 0.59780889243172
field sum 6669.2069474132
field sqrsum 320037.24089011
field min 43.450630314869
field max 49.201350845449
attr interpolationmode  none
attr title  "Latency time of file print, stats"
attr unit  s
statistic UCACnet.owner[217] 	latency:stats
field count 141
field mean 48.06482413614
field stddev 0.49890205374695
field sum 6777.1402031957
field sqrsum 325776.89846885
field min 46.395210329747
field max 49.095726088123
attr interpolationmode  none
attr title  "Latency time of file print, stats"
attr unit  s
statistic UCACnet.owner[218] 	latency:stats
field count 142
field mean 48.007744645034
field stddev 0.47290031885814
field sum 6817.0997395949
field sqrsum 327305.11601253
field min 46.786976189058
field max 49.085553346133
attr interpolationmode  none
attr title  "Latency time of file print, stats"
attr unit  s
statistic UCACnet.owner[219] 	latency:stats
field count 138
field mean 48.033072171683
field stddev 0.53764515435397
field sum 6628.5639596923
field sqrsum 318429.89260726
field min 46.129444941597
field max 50.644750608451
attr interpolationmode  none
attr title  "Latency time of file print, stats"
attr unit  s
statistic UCACnet.owner[220] 	latency:stats
field count 142
field mean 48.014117250689
field stddev 0.5507063745598
field sum 6818.0046495978
field sqrsum 327403.23679058
field min 46.261176862412
field max 49.4746881774
attr interpolationmode  none
attr title  "Latency time of file print, stats"
attr unit  s
statistic UCACnet.owner[221] 	latency:stats
field count 139
field mean 48.039247331078
field stddev 0.44628723458221
field sum 6677.4553790198
field sqrsum 320807.41627178
field min 46.826832812322
field max 49.077818438824
attr interpolationmode  none
attr title  "Latency time of file print, stats"
attr unit  s
statistic UCACnet.owner[222] 	latency:stats
field count 142
field mean 48.082519305272
field stddev 0.49987514200767
field sum 6827.7177413486
field sqrsum 328329.10250656
field min 46.380656342516
field max 49.658231445209
attr interpolationmode  none
attr title  "Latency time of file print, stats"
attr unit  s
statistic UCACnet.owner[223] 	latency:stats
field count 140
field mean 48.022383354665
field stddev 0.52567474570732
field sum 6723.1336696531
field sqrsum 322899.31284616
field min 45.574764411344
field max 49.141080897282
attr interpolationmode  none
attr title  "Latency time of file print, stats"
attr unit  s
statistic UCACnet.owner[224] 	latency:stats
field count 142
field mean 48.082798623428
field stddev 0.49860521208073
field sum 6827.7574045268
field sqrsum 328332.73794069
field min 46.630352778693
field max 50.646444571315
attr interpolationmode  none
attr title  "Latency time of file print, stats"
attr unit  s
statistic UCACnet.owner[225] 	latency:stats
field count 140
field mean 47.963860942284
field stddev 1.1084971596397
field sum 6714.9405319198
field sqrsum 322245.27237617
field min 37.013563770159
field max 49.70248834243
attr interpolationmode  none
attr title  "Latency time of file print, stats"
attr unit  s
statistic UCACnet.owner[226] 	latency:stats
field count 139
field mean 48.03022010923
field stddev 0.59244041041998
field sum 6676.2005951829
field sqrsum 320707.82009831
field min 45.655614968158
field max 49.676637167917
attr interpolationmode  none
attr title  "Latency time of file print, stats"
attr unit  s
statistic UCACnet.owner[227] 	latency:stats
field count 140
field mean 48.059422827109
field stddev 0.5479493721225
field sum 6728.3191957953
field sqrsum 323400.87168998
field min 46.953828531902
field max 50.462644658139
attr interpolationmode  none
attr title  "Latency time of file print, stats"
attr unit  s
statistic UCACnet.owner[228] 	latency:stats
field count 139
field mean 48.107092369562
field stddev 0.52192261087849
field sum 6686.8858393692
field sqrsum 321724.22638247
field min 46.343823302904
field max 50.127608198321
attr interpolationmode  none
attr title  "Latency time of file print, stats"
attr unit  s
statistic UCACnet.owner[229] 	latency:stats
field count 138
field mean 48.0506765952
field stddev 0.44119089940397
field sum 6630.9933701376
field sqrsum 318650.38490253
field min 46.841909967729
field max 49.087941679733
attr interpolationmode  none
attr title  "Latency time of file print, stats"
attr unit  s
statistic UCACnet.owner[230] 	latency:stats
field count 143
field mean 48.039359392679
field stddev 0.47537720220946
field sum 6869.6283931531
field sqrsum 330044.63692762
field min 46.345905069941
field max 49.075112486839
attr interpolationmode  none
attr title  "Latency time of file print, stats"
attr unit  s
statistic UCACnet.owner[231] 	latency:stats
field count 141
field mean 48.047549129708
field stddev 0.56870291827306
field sum 6774.7044272888
field sqrsum 325553.2230307
field min 46.659004162109
field max 50.584010075343
attr interpolationmode  none
attr title  "Latency time of file print, stats"
attr unit  s
statistic UCACnet.owner[232] 	latency:stats
field count 139
field mean 48.068652645194
field stddev 0.48274475544584
field sum 6681.542717682
field sqrsum 321204.91589513
field min 46.80096480931
field max 49.2318362831
attr interpolationmode  none
attr title  "Latency time of file print, stats"
attr unit  s
statistic UCACnet.owner[233] 	latency:stats
field count 136
field mean 48.029808675041
field stddev 0.56052549873457
field sum 6532.0539798055
field sqrsum 313775.71839779
field min 44.30072548308
field max 49.189590675779
attr interpolationmode  none
attr title  "Latency time of file print, stats"
attr unit  s
statistic UCACnet.owner[234] 	latency:stats
field count 141
field mean 48.085633455981
field stddev 0.52424266118005
field sum 6780.0743172933
field sqrsum 326062.64467717
field min 47.001092139652
field max 50.131471980516
attr interpolationmode  none
attr title  "Latency time of file print, stats"
attr unit  s
statistic UCACnet.owner[235] 	latency:stats
field count 141
field mean 48.0189390791
field stddev 0.54011735766584
field sum 6770.6704101531
field sqrsum 325161.25169621
field min 46.201441819713
field max 49.689590043559
attr interpolationmode  none
attr title  "Latency time of file print, stats"
attr unit  s
statistic UCACnet.owner[236] 	latency:stats
field count 142
field mean 48.093479285819
field stddev 0.51295329270942
field sum 6829.2740585862
field sqrsum 328480.65054615
field min 46.094359195835
field max 49.506700122993
attr interpolationmode  none
attr title  "Latency time of file print, stats"
attr unit  s
statistic UCACnet.owner[237] 	latency:stats
field count 140
field mean 48.066799772569
field stddev 0.5142023468555
field sum 6729.3519681596
field sqrsum 323495.16581611
field min 46.137894236004
field max 49.45597920454
attr interpolationmode  none
attr title  "Latency time of file print, stats"
attr unit  s
statistic UCACnet.owner[238] 	latency:stats
field count 143
field mean 48.127433916145
field stddev 0.53274508151597
field sum 6882.2230500087
field sqrsum 331264.03709517
field min 46.576576016043
field max 50.679000907334
attr interpolationmode  none
attr title  "Latency time of file print, stats"
attr unit  s
statistic UCACnet.owner[239] 	latency:stats
field count 140
field mean 48.074633862587
field stddev 0.49962582514873
field sum 6730.4487407621
field sqrsum 323598.5569522
field min 46.596435452432
field max 50.264216139413
attr interpolationmode  none
attr title  "Latency time of file print, stats"
attr unit  s
statistic UCACnet.owner[240] 	latency:stats
field count 141
field mean 48.05279285344
field stddev 0.52534362960466
field sum 6775.443792335
field sqrsum 325617.63507328
field min 46.450987814249
field max 50.647737555774
attr interpolationmode  none
attr title  "Latency time of file print, stats"
attr unit  s
statistic UCACnet.owner[241] 	latency:stats
field count 140
field mean 48.059974310221
field stddev 0.51284517384149
field sum 6728.396403431
field sqrsum 323403.11671183
field min 46.969710730375
field max 50.468481402416
attr interpolationmode  none
attr title  "Latency time of file print, stats"
attr unit  s
statistic UCACnet.owner[242] 	latency:stats
field count 141
field mean 47.99705133237
field stddev 0.48941459028586
field sum 6767.5842378641
field sqrsum 324857.62179067
field min 46.32177900478
field max 49.456835634776
attr interpolationmode  none
attr title  "Latency time of file print, stats"
attr unit  s
statistic UCACnet.owner[243] 	latency:stats
field count 139
field mean 48.049760451141
field stddev 0.51977228910613
field sum 6678.9167027086
field sqrsum 320957.63016436
field min 46.801657576521
field max 49.680152530821
attr interpolationmode  none
attr title  "Latency time of file print, stats"
attr unit  s
statistic UCACnet.owner[244] 	latency:stats
field count 142
field mean 48.009507619552
field stddev 0.54413054789716
field sum 6817.3500819764
field sqrsum 327339.3677113
field min 46.586981782423
field max 49.151547879294
attr interpolationmode  none
attr title  "Latency time of file print, stats"
attr unit  s
statistic UCACnet.owner[245] 	latency:stats
field count 140
field mean 48.005724052948
field stddev 0.65957981696528
field sum 6720.8013674127
field sqrsum 322697.40718805
field min 43.636257827026
field max 49.349671968711
attr interpolationmode  none
attr title  "Latency time of file print, stats"
attr unit  s
statistic UCACnet.owner[246] 	latency:stats
field count 138
field mean 48.047791048052
field stddev 0.57765401280577
field sum 6630.5951646312
field sqrsum 318631.16572414
field min 46.203169819359
field max 50.444860137327
attr interpolationmode  none
attr title  "Latency time of file print, stats"
attr unit  s
statistic UCACnet.owner[247] 	latency:stats
field count 140
field mean 48.032298190757
field stddev 0.49828107287925
field sum 6724.521746706
field sqrsum 323028.74520785
field min 46.480574322551
field max 49.230750260618
attr interpolationmode  none
attr title  "Latency time of file print, stats"
attr unit  s
statistic UCACnet.owner[248] 	latency:stats
field count 144
field mean 48.003379516282
field stddev 0.45726423994721
field sum 6912.4866503446
field sqrsum 331852.62003139
field min 46.604460714439
field max 49.034898926034
attr interpolationmode  none
attr title  "Latency time of file print, stats"
attr unit  s
statistic UCACnet.owner[249] 	latency:stats
field count 138
field mean 48.082048278354
field stddev 0.501371502858
field sum 6635.3226624128
field sqrsum 319074.34275018
field min 47.074704162732
field max 50.380294588842
attr interpolationmode  none
attr title  "Latency time of file print, stats"
attr unit  s
statistic UCACnet.owner[250] 	latency:stats
field count 140
field mean 48.048775691149
field stddev 0.48593218921769
field sum 6726.8285967608
field sqrsum 323248.70044143
field min 46.244697848404
field max 50.314801439715
attr interpolationmode  none
attr title  "Latency time of file print, stats"
attr unit  s
statistic UCACnet.owner[251] 	latency:stats
field count 141
field mean 48.045211142885
field stddev 0.47947489790725
field sum 6774.3747711468
field sqrsum 325508.45170566
field min 46.496557752007
field max 49.159783160554
attr interpolationmode  none
attr title  "Latency time of file print, stats"
attr unit  s
statistic UCACnet.owner[252] 	latency:stats
field count 142
field mean 47.916601272399
field stddev 2.2327664026633
field sum 6804.1573806807
field sqrsum 326735.01586378
field min 22.1190324303
field max 49.311240452849
attr interpolationmode  none
attr title  "Latency time of file print, stats"
attr unit  s
statistic UCACnet.owner[253] 	latency:stats
field count 142
field mean 48.018428184435
field stddev 0.52858874115912
field sum 6818.6168021898
field sqrsum 327458.65748721
field min 46.146356564672
field max 49.352341552465
attr interpolationmode  none
attr title  "Latency time of file print, stats"
attr unit  s
statistic UCACnet.owner[254] 	latency:stats
field count 139
field mean 48.075932122919
field stddev 0.55657889750977
field sum 6682.5545650858
field sqrsum 321312.78932831
[...]
field count 143
field mean 48.0679006469
field stddev 0.51605660538433
field sum 6873.7097925066
field sqrsum 330442.61602946
field min 46.487041795166
field max 49.440254587856
attr interpolationmode  none
attr title  "Latency time of file print, stats"
attr unit  s
statistic UCACnet.owner[637] 	latency:stats
field count 138
field mean 48.03025591824
field stddev 0.46333938613693
field sum 6628.1753167172
field sqrsum 318382.36835688
field min 46.507149574671
field max 49.549043688789
attr interpolationmode  none
attr title  "Latency time of file print, stats"
attr unit  s
statistic UCACnet.owner[638] 	latency:stats
field count 142
field mean 48.072503104795
field stddev 0.53349248656416
field sum 6826.2954408808
field sqrsum 328197.23938287
field min 46.734719221736
field max 50.676373887734
attr interpolationmode  none
attr title  "Latency time of file print, stats"
attr unit  s
statistic UCACnet.owner[639] 	latency:stats
field count 139
field mean 47.932202249586
field stddev 1.1914501972304
field sum 6662.5761126924
field sqrsum 319547.84412983
field min 35.475489404366
field max 49.185078850593
attr interpolationmode  none
attr title  "Latency time of file print, stats"
attr unit  s
statistic UCACnet.owner[640] 	latency:stats
field count 142
field mean 48.001336126177
field stddev 0.55623137874726
field sum 6816.1897299172
field sqrsum 327229.83878744
field min 45.009229956622
field max 49.184539188297
attr interpolationmode  none
attr title  "Latency time of file print, stats"
attr unit  s
statistic UCACnet.owner[641] 	latency:stats
field count 139
field mean 47.992396816944
field stddev 0.62048101833774
field sum 6670.9431575553
field sqrsum 320207.68070446
field min 44.5318115113
field max 49.241807872888
attr interpolationmode  none
attr title  "Latency time of file print, stats"
attr unit  s
statistic UCACnet.owner[642] 	latency:stats
field count 141
field mean 47.950296844479
field stddev 0.96282428101438
field sum 6760.9918550715
field sqrsum 324321.35069723
field min 38.32715139963
field max 49.574898686502
attr interpolationmode  none
attr title  "Latency time of file print, stats"
attr unit  s
statistic UCACnet.owner[643] 	latency:stats
field count 141
field mean 48.072496339488
field stddev 0.52680542987367
field sum 6778.2219838678
field sqrsum 325884.90486225
field min 46.325152743079
field max 50.229538193575
attr interpolationmode  none
attr title  "Latency time of file print, stats"
attr unit  s
statistic UCACnet.owner[644] 	latency:stats
field count 139
field mean 47.907811701982
field stddev 1.6023835746671
field sum 6659.1858265756
field sqrsum 319381.3540387
field min 30.043164919112
field max 49.41145513209
attr interpolationmode  none
attr title  "Latency time of file print, stats"
attr unit  s
statistic UCACnet.owner[645] 	latency:stats
field count 139
field mean 48.070563941585
field stddev 0.48632056803304
field sum 6681.8083878803
field sqrsum 321230.93541691
field min 46.504680585246
field max 49.261935243377
attr interpolationmode  none
attr title  "Latency time of file print, stats"
attr unit  s
statistic UCACnet.owner[646] 	latency:stats
field count 141
field mean 48.017395752016
field stddev 0.5677961894698
field sum 6770.4528010343
field sqrsum 325144.6465194
field min 45.572554588562
field max 49.653161938303
attr interpolationmode  none
attr title  "Latency time of file print, stats"
attr unit  s
statistic UCACnet.owner[647] 	latency:stats
field count 142
field mean 48.041365672873
field stddev 0.49584913975584
field sum 6821.8739255479
field sqrsum 327766.80698957
field min 46.378458129029
field max 49.39380152392
attr interpolationmode  none
attr title  "Latency time of file print, stats"
attr unit  s
statistic UCACnet.owner[648] 	latency:stats
field count 137
field mean 48.059923968322
field stddev 0.55865067316951
field sum 6584.2095836601
field sqrsum 316479.05630035
field min 44.639114651492
field max 49.599271754603
attr interpolationmode  none
attr title  "Latency time of file print, stats"
attr unit  s
statistic UCACnet.owner[649] 	latency:stats
field count 138
field mean 48.044778963988
field stddev 0.54909709654662
field sum 6630.1794970303
field sqrsum 318586.81497052
field min 46.36195352967
field max 49.569791994181
attr interpolationmode  none
attr title  "Latency time of file print, stats"
attr unit  s
statistic UCACnet.owner[650] 	latency:stats
field count 141
field mean 48.125060503607
field stddev 0.4564349569515
field sum 6785.6335310086
field sqrsum 326588.19083689
field min 46.996601827138
field max 49.647618252602
attr interpolationmode  none
attr title  "Latency time of file print, stats"
attr unit  s
statistic UCACnet.owner[651] 	latency:stats
field count 142
field mean 48.034437961226
field stddev 0.51889244565174
field sum 6820.8901904942
field sqrsum 327675.59085682
field min 46.621350563982
field max 49.712998326018
attr interpolationmode  none
attr title  "Latency time of file print, stats"
attr unit  s
statistic UCACnet.owner[652] 	latency:stats
field count 142
field mean 48.03392647019
field stddev 0.54343484203262
field sum 6820.817558767
field sqrsum 327672.28940568
field min 46.612419517968
field max 50.633416366283
attr interpolationmode  none
attr title  "Latency time of file print, stats"
attr unit  s
statistic UCACnet.owner[653] 	latency:stats
field count 139
field mean 48.079628120531
field stddev 0.44799191606165
field sum 6683.0683087539
field sqrsum 321347.13514144
field min 46.78570163021
field max 49.301688284046
attr interpolationmode  none
attr title  "Latency time of file print, stats"
attr unit  s
statistic UCACnet.owner[654] 	latency:stats
field count 140
field mean 48.076528006526
field stddev 0.5478566241396
field sum 6730.7139209136
field sqrsum 323631.07673912
field min 46.85245174158
field max 50.625867730431
attr interpolationmode  none
attr title  "Latency time of file print, stats"
attr unit  s
statistic UCACnet.owner[655] 	latency:stats
field count 144
field mean 48.040660971389
field stddev 0.52206174953567
field sum 6917.85517988
field sqrsum 332377.30977704
field min 46.870203643084
field max 49.654407667354
attr interpolationmode  none
attr title  "Latency time of file print, stats"
attr unit  s
statistic UCACnet.owner[656] 	latency:stats
field count 141
field mean 48.071598811371
field stddev 0.54477761023597
field sum 6778.0954324034
field sqrsum 325875.43390193
field min 45.352796860026
field max 49.534871279918
attr interpolationmode  none
attr title  "Latency time of file print, stats"
attr unit  s
statistic UCACnet.owner[657] 	latency:stats
field count 142
field mean 48.021751232399
field stddev 0.46554602070642
field sum 6819.0886750006
field sqrsum 327495.13934928
field min 46.842891495503
field max 49.402695476866
attr interpolationmode  none
attr title  "Latency time of file print, stats"
attr unit  s
statistic UCACnet.owner[658] 	latency:stats
field count 143
field mean 48.057566123293
field stddev 0.56046188410464
field sum 6872.231955631
field sqrsum 330307.34631069
field min 46.158450485444
field max 49.581220553746
attr interpolationmode  none
attr title  "Latency time of file print, stats"
attr unit  s
statistic UCACnet.owner[659] 	latency:stats
field count 141
field mean 48.069886955377
field stddev 0.48349053968869
field sum 6777.8540607081
field sqrsum 325843.40533255
field min 46.796326948967
field max 49.921683793545
attr interpolationmode  none
attr title  "Latency time of file print, stats"
attr unit  s
statistic UCACnet.owner[660] 	latency:stats
field count 142
field mean 47.955561669447
field stddev 0.76731863309638
field sum 6809.6897570614
field sqrsum 326645.5147763
field min 41.396274864574
field max 49.559433800292
attr interpolationmode  none
attr title  "Latency time of file print, stats"
attr unit  s
statistic UCACnet.owner[661] 	latency:stats
field count 141
field mean 48.048886241566
field stddev 0.50535406013583
field sum 6774.8929600608
field sqrsum 325561.8147184
field min 46.24212149827
field max 49.502749587533
attr interpolationmode  none
attr title  "Latency time of file print, stats"
attr unit  s
statistic UCACnet.owner[662] 	latency:stats
field count 143
field mean 48.049414366303
field stddev 0.54740340114318
field sum 6871.0662543813
field sqrsum 330193.25996376
field min 46.647146989591
field max 50.387375223458
attr interpolationmode  none
attr title  "Latency time of file print, stats"
attr unit  s
statistic UCACnet.owner[663] 	latency:stats
field count 141
field mean 47.905268998035
field stddev 1.2798544482513
field sum 6754.642928723
field sqrsum 323812.31032337
field min 34.303457802964
field max 49.717314286035
attr interpolationmode  none
attr title  "Latency time of file print, stats"
attr unit  s
statistic UCACnet.owner[664] 	latency:stats
field count 139
field mean 47.853310172275
field stddev 1.5812073869352
field sum 6651.6101139462
field sqrsum 318646.59184618
field min 30.443551254315
field max 49.39578831927
attr interpolationmode  none
attr title  "Latency time of file print, stats"
attr unit  s
statistic UCACnet.owner[665] 	latency:stats
field count 142
field mean 48.082540504008
field stddev 0.52531615333069
field sum 6827.7207515691
field sqrsum 328333.06953297
field min 46.566947667465
field max 50.471561158785
attr interpolationmode  none
attr title  "Latency time of file print, stats"
attr unit  s
statistic UCACnet.owner[666] 	latency:stats
field count 142
field mean 48.052984808956
field stddev 0.57332504308744
field sum 6823.5238428717
field sqrsum 327937.03449137
field min 46.504674452445
field max 50.654696537828
attr interpolationmode  none
attr title  "Latency time of file print, stats"
attr unit  s
statistic UCACnet.owner[667] 	latency:stats
field count 142
field mean 48.007140027191
field stddev 0.72964491021914
field sum 6817.0138838611
field sqrsum 327340.40590882
field min 42.578620524229
field max 49.386096924024
attr interpolationmode  none
attr title  "Latency time of file print, stats"
attr unit  s
statistic UCACnet.owner[668] 	latency:stats
field count 143
field mean 48.087866512479
field stddev 0.50371707389705
field sum 6876.5649112846
field sqrsum 330715.36530471
field min 46.662867459665
field max 50.36467792751
attr interpolationmode  none
attr title  "Latency time of file print, stats"
attr unit  s
statistic UCACnet.owner[669] 	latency:stats
field count 139
field mean 48.05027697308
field stddev 0.48374084283471
field sum 6678.9884992581
field sqrsum 320959.54000738
field min 46.669192102599
field max 49.69364590168
attr interpolationmode  none
attr title  "Latency time of file print, stats"
attr unit  s
statistic UCACnet.owner[670] 	latency:stats
field count 142
field mean 48.076660839534
field stddev 0.53575683802335
field sum 6826.8858392138
field sqrsum 328254.34707202
field min 46.154109908523
field max 50.320702306673
attr interpolationmode  none
attr title  "Latency time of file print, stats"
attr unit  s
statistic UCACnet.owner[671] 	latency:stats
field count 141
field mean 48.06918107284
field stddev 0.50450487605598
field sum 6777.7545312704
field sqrsum 325836.74335469
field min 46.727337377732
field max 50.651924037914
attr interpolationmode  none
attr title  "Latency time of file print, stats"
attr unit  s
statistic UCACnet.owner[672] 	latency:stats
field count 144
field mean 47.996784625364
field stddev 0.58338224322169
field sum 6911.5369860524
field sqrsum 331780.22003216
field min 44.603579440924
field max 49.082049522253
attr interpolationmode  none
attr title  "Latency time of file print, stats"
attr unit  s
statistic UCACnet.owner[673] 	latency:stats
field count 140
field mean 47.976846806138
field stddev 0.76074092890577
field sum 6716.7585528594
field sqrsum 322329.33914412
field min 41.272211384812
field max 49.1611526037
attr interpolationmode  none
attr title  "Latency time of file print, stats"
attr unit  s
statistic UCACnet.owner[674] 	latency:stats
field count 140
field mean 48.013974462806
field stddev 0.53901124539151
field sum 6721.9564247928
field sqrsum 322788.22822414
field min 45.924719042724
field max 49.485282084468
attr interpolationmode  none
attr title  "Latency time of file print, stats"
attr unit  s
statistic UCACnet.owner[675] 	latency:stats
field count 140
field mean 47.913991723607
field stddev 1.4647502985227
field sum 6707.958841305
field sqrsum 321703.30799233
field min 32.222639142635
field max 49.648437121265
attr interpolationmode  none
attr title  "Latency time of file print, stats"
attr unit  s
statistic UCACnet.owner[676] 	latency:stats
field count 142
field mean 48.071946549884
field stddev 0.53095808104131
field sum 6826.2164100836
field sqrsum 328189.2606277
field min 46.173680144575
field max 50.235223783482
attr interpolationmode  none
attr title  "Latency time of file print, stats"
attr unit  s
statistic UCACnet.owner[677] 	latency:stats
field count 140
field mean 47.842999958287
field stddev 2.5876475407961
field sum 6698.0199941601
field sqrsum 321384.10315277
field min 17.951476150375
field max 49.157527757143
attr interpolationmode  none
attr title  "Latency time of file print, stats"
attr unit  s
statistic UCACnet.owner[678] 	latency:stats
field count 142
field mean 47.992482441803
field stddev 0.59788087463427
field sum 6814.9325067361
field sqrsum 327115.93074878
field min 45.06499176499
field max 49.492449530245
attr interpolationmode  none
attr title  "Latency time of file print, stats"
attr unit  s
statistic UCACnet.owner[679] 	latency:stats
field count 138
field mean 48.028040331256
field stddev 0.46355210161947
field sum 6627.8695657133
field sqrsum 318353.02544786
field min 46.639776629715
field max 49.171769067286
attr interpolationmode  none
attr title  "Latency time of file print, stats"
attr unit  s
statistic UCACnet.owner[680] 	latency:stats
field count 143
field mean 48.035600875681
field stddev 0.49860006573103
field sum 6869.0909252224
field sqrsum 329996.21155037
field min 46.527637481525
field max 49.684093957484
attr interpolationmode  none
attr title  "Latency time of file print, stats"
attr unit  s
statistic UCACnet.owner[681] 	latency:stats
field count 143
field mean 47.96717384804
field stddev 0.93793947073778
field sum 6859.3058602698
field sqrsum 329146.43840045
field min 38.586300029962
field max 49.073746470271
attr interpolationmode  none
attr title  "Latency time of file print, stats"
attr unit  s
statistic UCACnet.owner[682] 	latency:stats
field count 138
field mean 47.986405934709
field stddev 0.75587749493405
field sum 6622.1240189899
field sqrsum 317850.20638311
field min 42.184148634842
field max 49.642029121123
attr interpolationmode  none
attr title  "Latency time of file print, stats"
attr unit  s
statistic UCACnet.owner[683] 	latency:stats
field count 138
field mean 48.073297939867
field stddev 0.53216529079234
field sum 6634.1151157016
field sqrsum 318962.59091035
field min 46.895315969865
field max 50.37821423154
attr interpolationmode  none
attr title  "Latency time of file print, stats"
attr unit  s
statistic UCACnet.owner[684] 	latency:stats
field count 142
field mean 47.984755064688
field stddev 0.5191513275845
field sum 6813.8352191857
field sqrsum 326998.216096
field min 46.466474800314
field max 49.07249631931
attr interpolationmode  none
attr title  "Latency time of file print, stats"
attr unit  s
statistic UCACnet.owner[685] 	latency:stats
field count 138
field mean 48.020000595349
field stddev 0.50400304645975
field sum 6626.7600821581
field sqrsum 318251.82370317
field min 46.692492223109
field max 49.442298101996
attr interpolationmode  none
attr title  "Latency time of file print, stats"
attr unit  s
statistic UCACnet.owner[686] 	latency:stats
field count 139
field mean 47.845082388451
field stddev 1.7639610125333
field sum 6650.4664519947
field sqrsum 318621.51038393
field min 28.012449748825
field max 49.068241897232
attr interpolationmode  none
attr title  "Latency time of file print, stats"
attr unit  s
statistic UCACnet.owner[687] 	latency:stats
field count 140
field mean 48.111956141252
field stddev 0.52755745047335
field sum 6735.6738597753
field sqrsum 324105.13136732
field min 46.749855014615
field max 50.643895400377
attr interpolationmode  none
attr title  "Latency time of file print, stats"
attr unit  s
statistic UCACnet.owner[688] 	latency:stats
field count 142
field mean 48.084844411401
field stddev 0.53737030650434
field sum 6828.0479064189
field sqrsum 328366.33733907
field min 47.043020406798
field max 50.236651752922
attr interpolationmode  none
attr title  "Latency time of file print, stats"
attr unit  s
statistic UCACnet.owner[689] 	latency:stats
field count 141
field mean 48.07559774223
field stddev 0.53382231506195
field sum 6778.6592816544
field sqrsum 325927.99213342
field min 46.851077824894
field max 49.450781093969
attr interpolationmode  none
attr title  "Latency time of file print, stats"
attr unit  s
statistic UCACnet.owner[690] 	latency:stats
field count 142
field mean 47.894765919229
field stddev 1.3635287461355
field sum 6801.0567605306
field sqrsum 325997.17024946
field min 33.056041684341
field max 49.610940095439
attr interpolationmode  none
attr title  "Latency time of file print, stats"
attr unit  s
statistic UCACnet.owner[691] 	latency:stats
field count 140
field mean 48.060126734549
field stddev 0.5064803373413
field sum 6728.4177428368
field sqrsum 323404.26604789
field min 46.234627333524
field max 49.568569366359
attr interpolationmode  none
attr title  "Latency time of file print, stats"
attr unit  s
statistic UCACnet.owner[692] 	latency:stats
field count 142
field mean 48.040316481706
field stddev 0.5311424823547
field sum 6821.7249404022
field sqrsum 327757.60292752
field min 46.657302191734
field max 49.639376852454
attr interpolationmode  none
attr title  "Latency time of file print, stats"
attr unit  s
statistic UCACnet.owner[693] 	latency:stats
field count 143
field mean 48.1152899983
field stddev 0.52124724724789
field sum 6880.4864697569
field sqrsum 331095.18303611
field min 46.795666644779
field max 49.48071746948
attr interpolationmode  none
attr title  "Latency time of file print, stats"
attr unit  s
statistic UCACnet.owner[694] 	latency:stats
field count 140
field mean 48.008961302313
field stddev 0.55091851102283
field sum 6721.2545823238
field sqrsum 322722.63920338
field min 45.946317325455
field max 49.233858168002
attr interpolationmode  none
attr title  "Latency time of file print, stats"
attr unit  s
statistic UCACnet.owner[695] 	latency:stats
field count 140
field mean 48.021999290185
field stddev 0.52072723056229
field sum 6723.0799006258
field sqrsum 322893.42901767
field min 46.594411212831
field max 49.402511478021
attr interpolationmode  none
attr title  "Latency time of file print, stats"
attr unit  s
statistic UCACnet.owner[696] 	latency:stats
field count 141
field mean 48.050468728831
field stddev 0.53980547595052
field sum 6775.1160907651
field sqrsum 325588.29844677
field min 46.632327197582
field max 50.134155325828
attr interpolationmode  none
attr title  "Latency time of file print, stats"
attr unit  s
statistic UCACnet.owner[697] 	latency:stats
field count 137
field mean 48.005897161821
field stddev 0.47344221646543
field sum 6576.8079111694
field sqrsum 315756.04830104
field min 46.509186697577
field max 49.293734162733
attr interpolationmode  none
attr title  "Latency time of file print, stats"
attr unit  s
statistic UCACnet.owner[698] 	latency:stats
field count 142
field mean 48.043022261413
field stddev 0.49489666078357
field sum 6822.1091611206
field sqrsum 327789.27639889
field min 46.779161519611
field max 49.594084220866
attr interpolationmode  none
attr title  "Latency time of file print, stats"
attr unit  s
statistic UCACnet.owner[699] 	latency:stats
field count 140
field mean 47.945016211619
field stddev 0.77152947616438
field sum 6712.3022696267
field sqrsum 321904.18195937
field min 41.051869784796
field max 49.212372212234
attr interpolationmode  none
attr title  "Latency time of file print, stats"
attr unit  s
